tests/data/upgrade-models/sb10_p7uhs7_1247_trans_301/p7udt173/OpenDSS/Lines.dss
New Line.l(r:p7udm13-p7ulv13) Units=km Length=0.00372007 bus1=p7udm13.1.2 bus2=p7ulv13.1.2 switch=n enabled=y phases=2 Linecode=1P_UG_AL_1/0_Brenau_2

New Line.l(r:p7udm15-p7ulv57) Units=km Length=0.00521078 bus1=p7udm15.1.2 bus2=p7ulv57.1.2 switch=n enabled=y phases=2 Linecode=1P_UG_AL_1/0_Brenau_2

New Line.l(r:p7udm13-p7udm15) Units=km Length=0.0387642 bus1=p7udm13.1.2 bus2=p7udm15.1.2 switch=n enabled=y phases=2 Linecode=1P_UG_AL_1/0_Brenau_2

New Line.l(r:p7udm13-p7udt5lv) Units=km Length=0.019392 bus1=p7udt5lv.1.2 bus2=p7udm13.1.2 switch=n enabled=y phases=2 Linecode=1P_UG_AL_1/0_Brenau_2

New Line.l(r:p7udm14-p7ulv20) Units=km Length=0.0094566 bus1=p7udm14.1.2 bus2=p7ulv20.1.2 switch=n enabled=y phases=2 Linecode=1P_UG_AL_1/0_Brenau_2

New Line.l(r:p7udm14-p7udt5lv) Units=km Length=0.0330588 bus1=p7udt5lv.1.2 bus2=p7udm14.1.2 switch=n enabled=y phases=2 Linecode=1P_UG_AL_1/0_Brenau_2

New Line.l(r:p7udm17-p7ulv6609) Units=km Length=0.0162481 bus1=p7udm17.1.2 bus2=p7ulv6609.1.2 switch=n enabled=y phases=2 Linecode=1P_UG_AL_1/0_Brenau_2

New Line.l(r:p7udm16-p7ulv435) Units=km Length=0.020160600000000004 bus1=p7udm16.1.2 bus2=p7ulv435.1.2 switch=n enabled=y phases=2 Linecode=1P_UG_AL_1/0_Brenau_2

New Line.l(r:p7udm16-p7udm17) Units=km Length=0.009751820000000001 bus1=p7udm17.1.2 bus2=p7udm16.1.2 switch=n enabled=y phases=2 Linecode=1P_UG_AL_1/0_Brenau_2

New Line.l(r:p7udm17-p7udt5lv) Units=km Length=0.035727 bus1=p7udt5lv.1.2 bus2=p7udm17.1.2 switch=n enabled=y phases=2 Linecode=1P_UG_AL_1/0_Brenau_2

New Line.l(r:p7udm18-p7ulv14) Units=km Length=0.0476731 bus1=p7udm18.1.2 bus2=p7ulv14.1.2 switch=n enabled=y phases=2 Linecode=1P_UG_AL_1/0_Brenau_2

New Line.l(r:p7udm18-p7ulv37) Units=km Length=0.0639982 bus1=p7udm18.1.2 bus2=p7ulv37.1.2 switch=n enabled=y phases=2 Linecode=1P_UG_AL_1/0_Brenau_2

New Line.l(r:p7udm18-p7udt6lv) Units=km Length=0.0188987 bus1=p7udt6lv.1.2 bus2=p7udm18.1.2 switch=n enabled=y phases=2 Linecode=1P_UG_AL_1/0_Brenau_2

New Line.l(r:p7udm19-p7ulv35) Units=km Length=0.0294127 bus1=p7udm19.1.2 bus2=p7ulv35.1.2 switch=n enabled=y phases=2 Linecode=1P_UG_AL_1/0_Brenau_2

New Line.l(r:p7udm19-p7ulv67) Units=km Length=0.0147435 bus1=p7udm19.1.2 bus2=p7ulv67.1.2 switch=n enabled=y phases=2 Linecode=1P_UG_AL_1/0_Brenau_2

New Line.l(r:p7udm19-p7udt6lv) Units=km Length=0.0196145 bus1=p7udt6lv.1.2 bus2=p7udm19.1.2 switch=n enabled=y phases=2 Linecode=1P_UG_AL_1/0_Brenau_2

New Line.l(r:p7udt7lv-p7ulv17) Units=km Length=0.0092057 bus1=p7udt7lv.1.2 bus2=p7ulv17.1.2 switch=n enabled=y phases=2 Linecode=1P_OH_AL_2/0_Rucina_2

New Line.l(r:p7udt7lv-p7ulv19) Units=km Length=0.019584700000000003 bus1=p7udt7lv.1.2 bus2=p7ulv19.1.2 switch=n enabled=y phases=2 Linecode=1P_OH_AL_2/0_Rucina_2

New Line.l(r:p7udm22-p7ulv15) Units=km Length=0.0034548800000000005 bus1=p7udm22.1.2 bus2=p7ulv15.1.2 switch=n enabled=y phases=2 Linecode=1P_UG_AL_1/0_Brenau_2

New Line.l(r:p7udm22-p7ulv31) Units=km Length=0.0212013 bus1=p7udm22.1.2 bus2=p7ulv31.1.2 switch=n enabled=y phases=2 Linecode=1P_UG_AL_1/0_Brenau_2

New Line.l(r:p7udm22-p7udt7lv) Units=km Length=0.0666529 bus1=p7udt7lv.1.2 bus2=p7udm22.1.2 switch=n enabled=y phases=2 Linecode=1P_OH_AL_4/0_Zuzara_2

New Line.l(r:p7udm26-p7ulv51) Units=km Length=0.012304800000000001 bus1=p7udm26.1.2 bus2=p7ulv51.1.2 switch=n enabled=y phases=2 Linecode=1P_OH_AL_2/0_Rucina_2

New Line.l(r:p7udm26-p7udt7lv) Units=km Length=0.0106825 bus1=p7udt7lv.1.2 bus2=p7udm26.1.2 switch=n enabled=y phases=2 Linecode=1P_OH_AL_2/0_Rucina_2

New Line.l(r:p7udm28-p7ulv33) Units=km Length=0.0382395 bus1=p7udm28.1.2 bus2=p7ulv33.1.2 switch=n enabled=y phases=2 Linecode=1P_UG_AL_1/0_Brenau_2

New Line.l(r:p7udm27-p7ulv16) Units=km Length=0.0305517 bus1=p7udm27.1.2 bus2=p7ulv16.1.2 switch=n enabled=y phases=2 Linecode=1P_UG_AL_1/0_Brenau_2

New Line.l(r:p7udm27-p7udm28) Units=km Length=0.0281992 bus1=p7udm28.1.2 bus2=p7udm27.1.2 switch=n enabled=y phases=2 Linecode=1P_UG_AL_1/0_Brenau_2

New Line.l(r:p7udm28-p7udt8lv) Units=km Length=0.0188017 bus1=p7udt8lv.1.2 bus2=p7udm28.1.2 switch=n enabled=y phases=2 Linecode=1P_UG_AL_1/0_Brenau_2

New Line.l(r:p7udm29-p7ulv52) Units=km Length=0.0111433 bus1=p7udm29.1.2 bus2=p7ulv52.1.2 switch=n enabled=y phases=2 Linecode=1P_UG_AL_1/0_Brenau_2

New Line.l(r:p7udm29-p7udt8lv) Units=km Length=0.0559469 bus1=p7udt8lv.1.2 bus2=p7udm29.1.2 switch=n enabled=y phases=2 Linecode=1P_UG_AL_1/0_Brenau_2

New Line.l(r:p7udt9lv-p7ulv39) Units=km Length=0.031788 bus1=p7udt9lv.1.2 bus2=p7ulv39.1.2 switch=n enabled=y phases=2 Linecode=1P_UG_AL_1/0_Brenau_2

New Line.l(r:p7udt9lv-p7ulv58) Units=km Length=0.0108577 bus1=p7udt9lv.1.2 bus2=p7ulv58.1.2 switch=n enabled=y phases=2 Linecode=1P_UG_AL_1/0_Brenau_2

New Line.l(r:p7udm31-p7ulv30) Units=km Length=0.00451249 bus1=p7udm31.1.2 bus2=p7ulv30.1.2 switch=n enabled=y phases=2 Linecode=1P_UG_AL_1/0_Brenau_2

New Line.l(r:p7udm30-p7ulv18) Units=km Length=0.0533549 bus1=p7udm30.1.2 bus2=p7ulv18.1.2 switch=n enabled=y phases=2 Linecode=1P_UG_AL_1/0_Brenau_2

New Line.l(r:p7udm30-p7ulv55) Units=km Length=0.00522245 bus1=p7udm30.1.2 bus2=p7ulv55.1.2 switch=n enabled=y phases=2 Linecode=1P_UG_AL_1/0_Brenau_2

New Line.l(r:p7udm30-p7udm31) Units=km Length=0.0158609 bus1=p7udm31.1.2 bus2=p7udm30.1.2 switch=n enabled=y phases=2 Linecode=1P_UG_AL_1/0_Brenau_2

New Line.l(r:p7udm31-p7udt9lv) Units=km Length=0.00793045 bus1=p7udt9lv.1.2 bus2=p7udm31.1.2 switch=n enabled=y phases=2 Linecode=1P_UG_AL_4/0_Sweetbriar_2

New Line.l(r:p7udm37-p7ulv71) Units=km Length=0.00703666 bus1=p7udm37.1.2 bus2=p7ulv71.1.2 switch=n enabled=y phases=2 Linecode=1P_UG_AL_1/0_Brenau_2

New Line.l(r:p7udm35-p7ulv59) Units=km Length=0.0189315 bus1=p7udm35.1.2 bus2=p7ulv59.1.2 switch=n enabled=y phases=2 Linecode=1P_UG_AL_1/0_Brenau_2

New Line.l(r:p7udm35-p7ulv66) Units=km Length=0.0036360000000000003 bus1=p7udm35.1.2 bus2=p7ulv66.1.2 switch=n enabled=y phases=2 Linecode=1P_UG_AL_1/0_Brenau_2

New Line.l(r:p7udm35-p7udm37) Units=km Length=0.0161798 bus1=p7udm37.1.2 bus2=p7udm35.1.2 switch=n enabled=y phases=2 Linecode=1P_UG_AL_1/0_Brenau_2

New Line.l(r:p7udm37-p7udt9lv) Units=km Length=0.016172000000000002 bus1=p7udt9lv.1.2 bus2=p7udm37.1.2 switch=n enabled=y phases=2 Linecode=1P_UG_AL_1/0_Brenau_2

New Line.l(r:p7udt10lv-p7ulv21) Units=km Length=0.00909083 bus1=p7udt10lv.1.2 bus2=p7ulv21.1.2 switch=n enabled=y phases=2 Linecode=1P_UG_AL_1/0_Brenau_2

New Line.l(r:p7udt10lv-p7ulv434) Units=km Length=0.020637100000000002 bus1=p7udt10lv.1.2 bus2=p7ulv434.1.2 switch=n enabled=y phases=2 Linecode=1P_UG_AL_1/0_Brenau_2

New Line.l(r:p7udm39-p7ulv25) Units=km Length=0.0111322 bus1=p7udm39.1.2 bus2=p7ulv25.1.2 switch=n enabled=y phases=2 Linecode=1P_UG_AL_1/0_Brenau_2

New Line.l(r:p7udm39-p7udt10lv) Units=km Length=0.0484697 bus1=p7udt10lv.1.2 bus2=p7udm39.1.2 switch=n enabled=y phases=2 Linecode=1P_UG_AL_1/0_Brenau_2

New Line.l(r:p7udm40-p7ulv54) Units=km Length=0.00564413 bus1=p7udm40.1.2 bus2=p7ulv54.1.2 switch=n enabled=y phases=2 Linecode=1P_UG_AL_1/0_Brenau_2

New Line.l(r:p7udm41-p7ulv431) Units=km Length=0.0216084 bus1=p7udm41.1.2 bus2=p7ulv431.1.2 switch=n enabled=y phases=2 Linecode=1P_UG_AL_1/0_Brenau_2

New Line.l(r:p7udm40-p7udm41) Units=km Length=0.018749300000000003 bus1=p7udm40.1.2 bus2=p7udm41.1.2 switch=n enabled=y phases=2 Linecode=1P_UG_AL_1/0_Brenau_2

New Line.l(r:p7udm40-p7udt10lv) Units=km Length=0.018749300000000003 bus1=p7udt10lv.1.2 bus2=p7udm40.1.2 switch=n enabled=y phases=2 Linecode=1P_UG_AL_1/0_Brenau_2

New Line.l(r:p7udm43-p7ulv22) Units=km Length=0.0223185 bus1=p7udm43.1.2 bus2=p7ulv22.1.2 switch=n enabled=y phases=2 Linecode=1P_UG_AL_1/0_Brenau_2

New Line.l(r:p7udm43-p7ulv75) Units=km Length=0.0127028 bus1=p7udm43.1.2 bus2=p7ulv75.1.2 switch=n enabled=y phases=2 Linecode=1P_UG_AL_1/0_Brenau_2

New Line.l(r:p7udm43-p7ulv455) Units=km Length=0.0257464 bus1=p7udm43.1.2 bus2=p7ulv455.1.2 switch=n enabled=y phases=2 Linecode=1P_UG_AL_1/0_Brenau_2

New Line.l(r:p7udm46-p7ulv452) Units=km Length=0.033529 bus1=p7udm46.1.2 bus2=p7ulv452.1.2 switch=n enabled=y phases=2 Linecode=1P_UG_AL_1/0_Brenau_2

New Line.l(r:p7udm43-p7udm46) Units=km Length=0.027726800000000003 bus1=p7udm43.1.2 bus2=p7udm46.1.2 switch=n enabled=y phases=2 Linecode=1P_UG_AL_1/0_Brenau_2

New Line.l(r:p7udm43-p7udt11lv) Units=km Length=0.00916365 bus1=p7udt11lv.1.2 bus2=p7udm43.1.2 switch=n enabled=y phases=2 Linecode=1P_UG_AL_1/0_Brenau_2

New Line.l(r:p7udm48-p7ulv456) Units=km Length=0.0184991 bus1=p7udm48.1.2 bus2=p7ulv456.1.2 switch=n enabled=y phases=2 Linecode=1P_UG_AL_1/0_Brenau_2

New Line.l(r:p7udm49-p7ulv470) Units=km Length=0.0414912 bus1=p7udm49.1.2 bus2=p7ulv470.1.2 switch=n enabled=y phases=2 Linecode=1P_UG_AL_1/0_Brenau_2

New Line.l(r:p7udm44-p7ulv65) Units=km Length=0.0138856 bus1=p7udm44.1.2 bus2=p7ulv65.1.2 switch=n enabled=y phases=2 Linecode=1P_UG_AL_1/0_Brenau_2

New Line.l(r:p7udm44-p7udm49) Units=km Length=0.00916365 bus1=p7udm49.1.2 bus2=p7udm44.1.2 switch=n enabled=y phases=2 Linecode=1P_UG_AL_1/0_Brenau_2

New Line.l(r:p7udm48-p7udm49) Units=km Length=0.00916365 bus1=p7udm48.1.2 bus2=p7udm49.1.2 switch=n enabled=y phases=2 Linecode=1P_UG_AL_1/0_Brenau_2

New Line.l(r:p7udm48-p7udt11lv) Units=km Length=0.0183337 bus1=p7udt11lv.1.2 bus2=p7udm48.1.2 switch=n enabled=y phases=2 Linecode=1P_UG_AL_1/0_Brenau_2

New Line.l(r:p7udt12lv-p7ulv23) Units=km Length=0.0239159 bus1=p7udt12lv.1.2 bus2=p7ulv23.1.2 switch=n enabled=y phases=2 Linecode=1P_UG_AL_1/0_Brenau_2

New Line.l(r:p7udm51-p7ulv24) Units=km Length=0.0183296 bus1=p7udm51.1.2 bus2=p7ulv24.1.2 switch=n enabled=y phases=2 Linecode=1P_UG_AL_1/0_Brenau_2

New Line.l(r:p7udm51-p7ulv4097) Units=km Length=0.0139423 bus1=p7udm51.1.2 bus2=p7ulv4097.1.2 switch=n enabled=y phases=2 Linecode=1P_UG_AL_1/0_Brenau_2

New Line.l(r:p7udm51-p7udt12lv) Units=km Length=0.0294491 bus1=p7udt12lv.1.2 bus2=p7udm51.1.2 switch=n enabled=y phases=2 Linecode=1P_UG_AL_1/0_Brenau_2

New Line.l(r:p7udm52-p7ulv68) Units=km Length=0.0128841 bus1=p7udm52.1.2 bus2=p7ulv68.1.2 switch=n enabled=y phases=2 Linecode=1P_UG_AL_1/0_Brenau_2

New Line.l(r:p7udm52-p7udt12lv) Units=km Length=0.0490863 bus1=p7udt12lv.1.2 bus2=p7udm52.1.2 switch=n enabled=y phases=2 Linecode=1P_UG_AL_1/0_Brenau_2

New Line.l(r:p7udt13lv-p7ulv26) Units=km Length=0.0054911 bus1=p7udt13lv.1.2 bus2=p7ulv26.1.2 switch=n enabled=y phases=2 Linecode=1P_OH_AL_2/0_Rucina_2

New Line.l(r:p7udt14lv-p7ulv27) Units=km Length=0.018426 bus1=p7udt14lv.1.2 bus2=p7ulv27.1.2 switch=n enabled=y phases=2 Linecode=1P_UG_AL_1/0_Brenau_2

New Line.l(r:p7udm58-p7ulv42) Units=km Length=0.0194365 bus1=p7udm58.1.2 bus2=p7ulv42.1.2 switch=n enabled=y phases=2 Linecode=1P_OH_AL_2/0_Rucina_2

New Line.l(r:p7udm56-p7ulv28) Units=km Length=0.0349713 bus1=p7udm56.1.2 bus2=p7ulv28.1.2 switch=n enabled=y phases=2 Linecode=1P_OH_AL_4/0_Zuzara_2

New Line.l(r:p7udm56-p7udm58) Units=km Length=0.0195441 bus1=p7udm58.1.2 bus2=p7udm56.1.2 switch=n enabled=y phases=2 Linecode=1P_OH_AL_2/0_Rucina_2

New Line.l(r:p7udm58-p7udt15lv) Units=km Length=0.0382674 bus1=p7udt15lv.1.2 bus2=p7udm58.1.2 switch=n enabled=y phases=2 Linecode=1P_OH_AL_4/0_Zuzara_2

New Line.l(r:p7udm59-p7ulv48) Units=km Length=0.0170412 bus1=p7udm59.1.2 bus2=p7ulv48.1.2 switch=n enabled=y phases=2 Linecode=1P_OH_AL_2/0_Rucina_2

New Line.l(r:p7udm57-p7ulv29) Units=km Length=0.014581400000000001 bus1=p7udm57.1.2 bus2=p7ulv29.1.2 switch=n enabled=y phases=2 Linecode=1P_OH_AL_2/0_Rucina_2

New Line.l(r:p7udm57-p7udm59) Units=km Length=0.03742850000000001 bus1=p7udm59.1.2 bus2=p7udm57.1.2 switch=n enabled=y phases=2 Linecode=1P_OH_AL_4/0_Zuzara_2

New Line.l(r:p7udm59-p7udt15lv) Units=km Length=0.0187046 bus1=p7udt15lv.1.2 bus2=p7udm59.1.2 switch=n enabled=y phases=2 Linecode=1P_OH_AL_2/0_Rucina_2

New Line.l(r:p7udm60-p7ulv32) Units=km Length=0.014403300000000003 bus1=p7udm60.1.2 bus2=p7ulv32.1.2 switch=n enabled=y phases=2 Linecode=1P_OH_AL_2/0_Rucina_2

New Line.l(r:p7udm60-p7udt16lv) Units=km Length=0.0168714 bus1=p7udt16lv.1.2 bus2=p7udm60.1.2 switch=n enabled=y phases=2 Linecode=1P_OH_AL_2/0_Rucina_2

New Line.l(r:p7udm62-p7ulv47) Units=km Length=0.00740198 bus1=p7udm62.1.2 bus2=p7ulv47.1.2 switch=n enabled=y phases=2 Linecode=1P_UG_AL_1/0_Brenau_2

New Line.l(r:p7udm61-p7ulv45) Units=km Length=0.00743958 bus1=p7udm61.1.2 bus2=p7ulv45.1.2 switch=n enabled=y phases=2 Linecode=1P_UG_AL_1/0_Brenau_2

New Line.l(r:p7udm61-p7udm62) Units=km Length=0.00964697 bus1=p7udm62.1.2 bus2=p7udm61.1.2 switch=n enabled=y phases=2 Linecode=1P_UG_AL_1/0_Brenau_2

New Line.l(r:p7udm62-p7udt16lv) Units=km Length=0.0404778 bus1=p7udt16lv.1.2 bus2=p7udm62.1.2 switch=n enabled=y phases=2 Linecode=1P_OH_AL_4/0_Zuzara_2

New Line.l(r:p7udt17lv-p7ulv43) Units=km Length=0.00408344 bus1=p7udt17lv.1.2 bus2=p7ulv43.1.2 switch=n enabled=y phases=2 Linecode=1P_OH_AL_2/0_Rucina_2_1

New Line.l(r:p7udm63-p7ulv34) Units=km Length=0.00238296 bus1=p7udm63.1.2 bus2=p7ulv34.1.2 switch=n enabled=y phases=2 Linecode=1P_OH_AL_4_Periwinkle_2

New Line.l(r:p7udm63-p7udt17lv) Units=km Length=0.0159224 bus1=p7udt17lv.1.2 bus2=p7udm63.1.2 switch=n enabled=y phases=2 Linecode=1P_OH_AL_2/0_Rucina_2

New Line.l(r:p7udt18lv-p7ulv36) Units=km Length=0.0134865 bus1=p7udt18lv.1.2 bus2=p7ulv36.1.2 switch=n enabled=y phases=2 Linecode=1P_UG_AL_1/0_Brenau_2

New Line.l(r:p7udm66-p7ulv38) Units=km Length=0.00939173 bus1=p7udm66.1.2 bus2=p7ulv38.1.2 switch=n enabled=y phases=2 Linecode=1P_UG_AL_1/0_Brenau_2

New Line.l(r:p7udm66-p7ulv460) Units=km Length=0.0613667 bus1=p7udm66.1.2 bus2=p7ulv460.1.2 switch=n enabled=y phases=2 Linecode=1P_UG_AL_1/0_Brenau_2

New Line.l(r:p7udm70-p7ulv6622) Units=km Length=0.0172637 bus1=p7udm70.1.2 bus2=p7ulv6622.1.2 switch=n enabled=y phases=2 Linecode=1P_UG_AL_1/0_Brenau_2

New Line.l(r:p7udm66-p7udm70) Units=km Length=0.00894465 bus1=p7udm66.1.2 bus2=p7udm70.1.2 switch=n enabled=y phases=2 Linecode=1P_UG_AL_1/0_Brenau_2

New Line.l(r:p7udm66-p7udt18lv) Units=km Length=0.0185184 bus1=p7udt18lv.1.2 bus2=p7udm66.1.2 switch=n enabled=y phases=2 Linecode=1P_UG_AL_1/0_Brenau_2

New Line.l(r:p7udm69-p7ulv475) Units=km Length=0.019565 bus1=p7udm69.1.2 bus2=p7ulv475.1.2 switch=n enabled=y phases=2 Linecode=1P_UG_AL_1/0_Brenau_2

New Line.l(r:p7udm67-p7ulv61) Units=km Length=0.019719200000000003 bus1=p7udm67.1.2 bus2=p7ulv61.1.2 switch=n enabled=y phases=2 Linecode=1P_UG_AL_1/0_Brenau_2

New Line.l(r:p7udm67-p7udm69) Units=km Length=0.00968666 bus1=p7udm69.1.2 bus2=p7udm67.1.2 switch=n enabled=y phases=2 Linecode=1P_UG_AL_1/0_Brenau_2

New Line.l(r:p7udm69-p7udt18lv) Units=km Length=0.02906 bus1=p7udt18lv.1.2 bus2=p7udm69.1.2 switch=n enabled=y phases=2 Linecode=1P_UG_AL_1/0_Brenau_2

New Line.l(r:p7udt19lv-p7ulv453) Units=km Length=0.0201084 bus1=p7udt19lv.1.2 bus2=p7ulv453.1.2 switch=n enabled=y phases=2 Linecode=1P_UG_AL_1/0_Brenau_2

New Line.l(r:p7udm71-p7ulv40) Units=km Length=0.0302979 bus1=p7udm71.1.2 bus2=p7ulv40.1.2 switch=n enabled=y phases=2 Linecode=1P_UG_AL_1/0_Brenau_2

New Line.l(r:p7udm75-p7ulv476) Units=km Length=0.0154718 bus1=p7udm75.1.2 bus2=p7ulv476.1.2 switch=n enabled=y phases=2 Linecode=1P_UG_AL_1/0_Brenau_2

New Line.l(r:p7udm71-p7udm75) Units=km Length=0.00896688 bus1=p7udm71.1.2 bus2=p7udm75.1.2 switch=n enabled=y phases=2 Linecode=1P_UG_AL_1/0_Brenau_2

New Line.l(r:p7udm71-p7udt19lv) Units=km Length=0.00895469 bus1=p7udt19lv.1.2 bus2=p7udm71.1.2 switch=n enabled=y phases=2 Linecode=1P_UG_AL_1/0_Brenau_2

New Line.l(r:p7udm72-p7ulv60) Units=km Length=0.0145597 bus1=p7udm72.1.2 bus2=p7ulv60.1.2 switch=n enabled=y phases=2 Linecode=1P_UG_AL_1/0_Brenau_2

New Line.l(r:p7udm73-p7ulv70) Units=km Length=0.0138232 bus1=p7udm73.1.2 bus2=p7ulv70.1.2 switch=n enabled=y phases=2 Linecode=1P_UG_AL_1/0_Brenau_2

New Line.l(r:p7udm72-p7udm73) Units=km Length=0.00987393 bus1=p7udm72.1.2 bus2=p7udm73.1.2 switch=n enabled=y phases=2 Linecode=1P_UG_AL_1/0_Brenau_2

New Line.l(r:p7udm72-p7udt19lv) Units=km Length=0.0197462 bus1=p7udt19lv.1.2 bus2=p7udm72.1.2 switch=n enabled=y phases=2 Linecode=1P_UG_AL_1/0_Brenau_2

New Line.l(r:p7udm76-p7ulv41) Units=km Length=0.0142663 bus1=p7udm76.1.2 bus2=p7ulv41.1.2 switch=n enabled=y phases=2 Linecode=1P_UG_AL_1/0_Brenau_2

New Line.l(r:p7udm78-p7ulv432) Units=km Length=0.0215491 bus1=p7udm78.1.2 bus2=p7ulv432.1.2 switch=n enabled=y phases=2 Linecode=1P_UG_AL_1/0_Brenau_2

New Line.l(r:p7udm76-p7udm78) Units=km Length=0.0378899 bus1=p7udm76.1.2 bus2=p7udm78.1.2 switch=n enabled=y phases=2 Linecode=1P_UG_AL_1/0_Brenau_2

New Line.l(r:p7udm76-p7udt20lv) Units=km Length=0.00953944 bus1=p7udt20lv.1.2 bus2=p7udm76.1.2 switch=n enabled=y phases=2 Linecode=1P_UG_AL_1/0_Brenau_2

New Line.l(r:p7udm77-p7ulv44) Units=km Length=0.0186389 bus1=p7udm77.1.2 bus2=p7ulv44.1.2 switch=n enabled=y phases=2 Linecode=1P_UG_AL_4/0_Sweetbriar_2

New Line.l(r:p7udm77-p7udt20lv) Units=km Length=0.056389600000000005 bus1=p7udt20lv.1.2 bus2=p7udm77.1.2 switch=n enabled=y phases=2 Linecode=1P_UG_AL_4/0_Sweetbriar_2

New Line.l(r:p7udm79-p7ulv474) Units=km Length=0.00525168 bus1=p7udm79.1.2 bus2=p7ulv474.1.2 switch=n enabled=y phases=2 Linecode=1P_UG_AL_1/0_Brenau_2

New Line.l(r:p7udm79-p7udt20lv) Units=km Length=0.00976828 bus1=p7udt20lv.1.2 bus2=p7udm79.1.2 switch=n enabled=y phases=2 Linecode=1P_UG_AL_1/0_Brenau_2

New Line.l(r:p7udm80-p7ulv46) Units=km Length=0.011569300000000001 bus1=p7udm80.1.2 bus2=p7ulv46.1.2 switch=n enabled=y phases=2 Linecode=1P_UG_AL_1/0_Brenau_2

New Line.l(r:p7udm82-p7ulv428) Units=km Length=0.0187039 bus1=p7udm82.1.2 bus2=p7ulv428.1.2 switch=n enabled=y phases=2 Linecode=1P_UG_AL_1/0_Brenau_2

New Line.l(r:p7udm80-p7udm82) Units=km Length=0.0390213 bus1=p7udm80.1.2 bus2=p7udm82.1.2 switch=n enabled=y phases=2 Linecode=1P_UG_AL_1/0_Brenau_2

New Line.l(r:p7udm80-p7udt21lv) Units=km Length=0.018592100000000004 bus1=p7udt21lv.1.2 bus2=p7udm80.1.2 switch=n enabled=y phases=2 Linecode=1P_UG_AL_1/0_Brenau_2

New Line.l(r:p7udm81-p7ulv50) Units=km Length=0.019567600000000004 bus1=p7udm81.1.2 bus2=p7ulv50.1.2 switch=n enabled=y phases=2 Linecode=1P_UG_AL_1/0_Brenau_2

New Line.l(r:p7udm81-p7ulv442) Units=km Length=0.019087400000000004 bus1=p7udm81.1.2 bus2=p7ulv442.1.2 switch=n enabled=y phases=2 Linecode=1P_UG_AL_1/0_Brenau_2

New Line.l(r:p7udm81-p7udt21lv) Units=km Length=0.0278752 bus1=p7udt21lv.1.2 bus2=p7udm81.1.2 switch=n enabled=y phases=2 Linecode=1P_UG_AL_1/0_Brenau_2

New Line.l(r:p7udt22lv-p7ulv49) Units=km Length=0.038743200000000005 bus1=p7udt22lv.1.2 bus2=p7ulv49.1.2 switch=n enabled=y phases=2 Linecode=1P_OH_AL_4/0_Zuzara_2

New Line.l(r:p7udm85-p7ulv53) Units=km Length=0.00628013 bus1=p7udm85.1.2 bus2=p7ulv53.1.2 switch=n enabled=y phases=2 Linecode=1P_UG_AL_1/0_Brenau_2

New Line.l(r:p7udm85-p7ulv7296) Units=km Length=0.0228068 bus1=p7udm85.1.2 bus2=p7ulv7296.1.2 switch=n enabled=y phases=2 Linecode=1P_UG_AL_1/0_Brenau_2

New Line.l(r:p7udm85-p7udt23lv) Units=km Length=0.009776810000000002 bus1=p7udt23lv.1.2 bus2=p7udm85.1.2 switch=n enabled=y phases=2 Linecode=1P_UG_AL_1/0_Brenau_2

New Line.l(r:p7udm86-p7ulv6809) Units=km Length=0.00484695 bus1=p7udm86.1.2 bus2=p7ulv6809.1.2 switch=n enabled=y phases=2 Linecode=1P_UG_AL_1/0_Brenau_2

New Line.l(r:p7udm86-p7ulv7270) Units=km Length=0.0243735 bus1=p7udm86.1.2 bus2=p7ulv7270.1.2 switch=n enabled=y phases=2 Linecode=1P_UG_AL_1/0_Brenau_2

New Line.l(r:p7udm86-p7udt23lv) Units=km Length=0.00978806 bus1=p7udt23lv.1.2 bus2=p7udm86.1.2 switch=n enabled=y phases=2 Linecode=1P_UG_AL_1/0_Brenau_2

New Line.l(r:p7udt24lv-p7ulv56) Units=km Length=0.008451710000000001 bus1=p7udt24lv.1.2 bus2=p7ulv56.1.2 switch=n enabled=y phases=2 Linecode=1P_UG_AL_1/0_Brenau_2

New Line.l(r:p7udm90-p7ulv62) Units=km Length=0.0155244 bus1=p7udm90.1.2 bus2=p7ulv62.1.2 switch=n enabled=y phases=2 Linecode=1P_UG_AL_1/0_Brenau_2

New Line.l(r:p7udm91-p7ulv72) Units=km Length=0.0141723 bus1=p7udm91.1.2 bus2=p7ulv72.1.2 switch=n enabled=y phases=2 Linecode=1P_UG_AL_1/0_Brenau_2

New Line.l(r:p7udm90-p7udm91) Units=km Length=0.0445175 bus1=p7udm90.1.2 bus2=p7udm91.1.2 switch=n enabled=y phases=2 Linecode=1P_UG_AL_1/0_Brenau_2

New Line.l(r:p7udm90-p7udt25lv) Units=km Length=0.00844254 bus1=p7udt25lv.1.2 bus2=p7udm90.1.2 switch=n enabled=y phases=2 Linecode=1P_UG_AL_1/0_Brenau_2

New Line.l(r:p7udm92-p7ulv433) Units=km Length=0.028525300000000003 bus1=p7udm92.1.2 bus2=p7ulv433.1.2 switch=n enabled=y phases=2 Linecode=1P_UG_AL_1/0_Brenau_2

New Line.l(r:p7udm92-p7udt25lv) Units=km Length=0.0468661 bus1=p7udt25lv.1.2 bus2=p7udm92.1.2 switch=n enabled=y phases=2 Linecode=1P_UG_AL_1/0_Brenau_2

New Line.l(r:p7udt26lv-p7ulv63) Units=km Length=0.0711381 bus1=p7udt26lv.1.2 bus2=p7ulv63.1.2 switch=n enabled=y phases=2 Linecode=1P_OH_AL_4/0_Zuzara_2

New Line.l(r:p7udm94-p7ulv73) Units=km Length=0.0701963 bus1=p7udm94.1.2 bus2=p7ulv73.1.2 switch=n enabled=y phases=2 Linecode=1P_OH_AL_4/0_Zuzara_2

New Line.l(r:p7udm94-p7udt26lv) Units=km Length=0.0159391 bus1=p7udt26lv.1.2 bus2=p7udm94.1.2 switch=n enabled=y phases=2 Linecode=1P_OH_AL_2/0_Rucina_2

New Line.l(r:p7udt27lv-p7ulv64) Units=km Length=0.001 bus1=p7udt27lv.1.2 bus2=p7ulv64.1.2 switch=n enabled=y phases=2 Linecode=1P_UG_AL_1/0_Brenau_2

New Line.l(r:p7udt28lv-p7ulv69) Units=km Length=0.0272789 bus1=p7udt28lv.1.2 bus2=p7ulv69.1.2 switch=n enabled=y phases=2 Linecode=1P_UG_AL_1/0_Brenau_2

New Line.l(r:p7udt29lv-p7ulv74) Units=km Length=0.00479067 bus1=p7udt29lv.1.2 bus2=p7ulv74.1.2 switch=n enabled=y phases=2 Linecode=1P_UG_AL_1/0_Brenau_2

New Line.l(r:p7udt120lv-p7ulv429) Units=km Length=0.0117208 bus1=p7udt120lv.1.2 bus2=p7ulv429.1.2 switch=n enabled=y phases=2 Linecode=1P_UG_AL_1/0_Brenau_2

New Line.l(r:p7udm505-p7ulv427) Units=km Length=0.00948289 bus1=p7udm505.1.2 bus2=p7ulv427.1.2 switch=n enabled=y phases=2 Linecode=1P_UG_AL_1/0_Brenau_2

New Line.l(r:p7udm505-p7udt120lv) Units=km Length=0.00954452 bus1=p7udt120lv.1.2 bus2=p7udm505.1.2 switch=n enabled=y phases=2 Linecode=1P_UG_AL_1/0_Brenau_2

New Line.l(r:p7udt121lv-p7ulv430) Units=km Length=0.00873275 bus1=p7udt121lv.1.2 bus2=p7ulv430.1.2 switch=n enabled=y phases=2 Linecode=1P_UG_AL_1/0_Brenau_2

New Line.l(r:p7udt121lv-p7ulv7298) Units=km Length=0.059522700000000005 bus1=p7udt121lv.1.2 bus2=p7ulv7298.1.2 switch=n enabled=y phases=2 Linecode=1P_UG_AL_1/0_Brenau_2

New Line.l(r:p7udt121lv-p7ulv7299) Units=km Length=0.062115 bus1=p7udt121lv.1.2 bus2=p7ulv7299.1.2 switch=n enabled=y phases=2 Linecode=1P_UG_AL_2/0_Converse_2

New Line.l(r:p7udm508-p7ulv438) Units=km Length=0.0124868 bus1=p7udm508.1.2 bus2=p7ulv438.1.2 switch=n enabled=y phases=2 Linecode=1P_UG_AL_1/0_Brenau_2

New Line.l(r:p7udm508-p7udt121lv) Units=km Length=0.00954452 bus1=p7udt121lv.1.2 bus2=p7udm508.1.2 switch=n enabled=y phases=2 Linecode=1P_UG_AL_1/0_Brenau_2

New Line.l(r:p7udt122lv-p7ulv436) Units=km Length=0.020387900000000004 bus1=p7udt122lv.1.2 bus2=p7ulv436.1.2 switch=n enabled=y phases=2 Linecode=1P_UG_AL_1/0_Brenau_2

New Line.l(r:p7udm514-p7ulv457) Units=km Length=0.0275561 bus1=p7udm514.1.2 bus2=p7ulv457.1.2 switch=n enabled=y phases=2 Linecode=1P_UG_AL_1/0_Brenau_2

New Line.l(r:p7udm514-p7ulv461) Units=km Length=0.0401311 bus1=p7udm514.1.2 bus2=p7ulv461.1.2 switch=n enabled=y phases=2 Linecode=1P_UG_AL_1/0_Brenau_2

New Line.l(r:p7udm514-p7udt123lv) Units=km Length=0.0674372 bus1=p7udt123lv.1.2 bus2=p7udm514.1.2 switch=n enabled=y phases=2 Linecode=1P_UG_AL_1/0_Brenau_2

New Line.l(r:p7udm516-p7ulv467) Units=km Length=0.0565546 bus1=p7udm516.1.2 bus2=p7ulv467.1.2 switch=n enabled=y phases=2 Linecode=1P_UG_AL_1/0_Brenau_2

New Line.l(r:p7udm513-p7ulv441) Units=km Length=0.0133629 bus1=p7udm513.1.2 bus2=p7ulv441.1.2 switch=n enabled=y phases=2 Linecode=1P_UG_AL_1/0_Brenau_2

New Line.l(r:p7udm512-p7ulv437) Units=km Length=0.0214386 bus1=p7udm512.1.2 bus2=p7ulv437.1.2 switch=n enabled=y phases=2 Linecode=1P_UG_AL_1/0_Brenau_2

New Line.l(r:p7udm512-p7udm513) Units=km Length=0.00920602 bus1=p7udm513.1.2 bus2=p7udm512.1.2 switch=n enabled=y phases=2 Linecode=1P_UG_AL_1/0_Brenau_2

New Line.l(r:p7udm513-p7udm516) Units=km Length=0.00920602 bus1=p7udm516.1.2 bus2=p7udm513.1.2 switch=n enabled=y phases=2 Linecode=1P_UG_AL_1/0_Brenau_2

New Line.l(r:p7udm516-p7udt123lv) Units=km Length=0.0198623 bus1=p7udt123lv.1.2 bus2=p7udm516.1.2 switch=n enabled=y phases=2 Linecode=1P_UG_AL_1/0_Brenau_2

New Line.l(r:p7udm517-p7ulv439) Units=km Length=0.0276915 bus1=p7udm517.1.2 bus2=p7ulv439.1.2 switch=n enabled=y phases=2 Linecode=1P_UG_AL_1/0_Brenau_2

New Line.l(r:p7udm517-p7udt124lv) Units=km Length=0.00925208 bus1=p7udt124lv.1.2 bus2=p7udm517.1.2 switch=n enabled=y phases=2 Linecode=1P_UG_AL_1/0_Brenau_2

New Line.l(r:p7udm518-p7ulv440) Units=km Length=0.0299299 bus1=p7udm518.1.2 bus2=p7ulv440.1.2 switch=n enabled=y phases=2 Linecode=1P_UG_AL_1/0_Brenau_2

New Line.l(r:p7udm518-p7udt124lv) Units=km Length=0.00923794 bus1=p7udt124lv.1.2 bus2=p7udm518.1.2 switch=n enabled=y phases=2 Linecode=1P_UG_AL_1/0_Brenau_2

New Line.l(r:p7udt125lv-p7ulv443) Units=km Length=0.0254173 bus1=p7udt125lv.1.2 bus2=p7ulv443.1.2 switch=n enabled=y phases=2 Linecode=1P_UG_AL_1/0_Brenau_2

New Line.l(r:p7udt126lv-p7ulv444) Units=km Length=0.0266541 bus1=p7udt126lv.1.2 bus2=p7ulv444.1.2 switch=n enabled=y phases=2 Linecode=1P_UG_AL_1/0_Brenau_2

New Line.l(r:p7udt127lv-p7ulv445) Units=km Length=0.027354 bus1=p7udt127lv.1.2 bus2=p7ulv445.1.2 switch=n enabled=y phases=2 Linecode=1P_UG_AL_1/0_Brenau_2

New Line.l(r:p7udt128lv-p7ulv7309) Units=km Length=0.0337463 bus1=p7udt128lv.1.2 bus2=p7ulv7309.1.2 switch=n enabled=y phases=2 Linecode=1P_UG_AL_1/0_Brenau_2

New Line.l(r:p7udm522-p7ulv446) Units=km Length=0.0172479 bus1=p7udm522.1.2 bus2=p7ulv446.1.2 switch=n enabled=y phases=2 Linecode=1P_UG_AL_1/0_Brenau_2

New Line.l(r:p7udm524-p7ulv7304) Units=km Length=0.0265813 bus1=p7udm524.1.2 bus2=p7ulv7304.1.2 switch=n enabled=y phases=2 Linecode=1P_UG_AL_1/0_Brenau_2

New Line.l(r:p7udm522-p7udm524) Units=km Length=0.0186647 bus1=p7udm522.1.2 bus2=p7udm524.1.2 switch=n enabled=y phases=2 Linecode=1P_UG_AL_1/0_Brenau_2

New Line.l(r:p7udm522-p7udt128lv) Units=km Length=0.0203977 bus1=p7udt128lv.1.2 bus2=p7udm522.1.2 switch=n enabled=y phases=2 Linecode=1P_UG_AL_1/0_Brenau_2

New Line.l(r:p7udm525-p7ulv7305) Units=km Length=0.0192535 bus1=p7udm525.1.2 bus2=p7ulv7305.1.2 switch=n enabled=y phases=2 Linecode=1P_UG_AL_1/0_Brenau_2

New Line.l(r:p7udm523-p7ulv7303) Units=km Length=0.00921644 bus1=p7udm523.1.2 bus2=p7ulv7303.1.2 switch=n enabled=y phases=2 Linecode=1P_UG_AL_1/0_Brenau_2

New Line.l(r:p7udm523-p7udm525) Units=km Length=0.0295821 bus1=p7udm525.1.2 bus2=p7udm523.1.2 switch=n enabled=y phases=2 Linecode=1P_UG_AL_1/0_Brenau_2

New Line.l(r:p7udm525-p7udt128lv) Units=km Length=0.00757895 bus1=p7udt128lv.1.2 bus2=p7udm525.1.2 switch=n enabled=y phases=2 Linecode=1P_UG_AL_1/0_Brenau_2

New Line.l(r:p7udt129lv-p7ulv447) Units=km Length=0.0207025 bus1=p7udt129lv.1.2 bus2=p7ulv447.1.2 switch=n enabled=y phases=2 Linecode=1P_UG_AL_1/0_Brenau_2

New Line.l(r:p7udt129lv-p7ulv454) Units=km Length=0.0200217 bus1=p7udt129lv.1.2 bus2=p7ulv454.1.2 switch=n enabled=y phases=2 Linecode=1P_UG_AL_1/0_Brenau_2

New Line.l(r:p7udt129lv-p7ulv477) Units=km Length=0.00845521 bus1=p7udt129lv.1.2 bus2=p7ulv477.1.2 switch=n enabled=y phases=2 Linecode=1P_UG_AL_1/0_Brenau_2

New Line.l(r:p7udt131lv-p7ulv463) Units=km Length=0.0341321 bus1=p7udt131lv.1.2 bus2=p7ulv463.1.2 switch=n enabled=y phases=2 Linecode=1P_UG_AL_1/0_Brenau_2

New Line.l(r:p7udm534-p7ulv450) Units=km Length=0.0234032 bus1=p7udm534.1.2 bus2=p7ulv450.1.2 switch=n enabled=y phases=2 Linecode=1P_UG_AL_1/0_Brenau_2

New Line.l(r:p7udm534-p7udt131lv) Units=km Length=0.036426400000000005 bus1=p7udt131lv.1.2 bus2=p7udm534.1.2 switch=n enabled=y phases=2 Linecode=1P_UG_AL_1/0_Brenau_2

New Line.l(r:p7udm535-p7ulv458) Units=km Length=0.019099700000000004 bus1=p7udm535.1.2 bus2=p7ulv458.1.2 switch=n enabled=y phases=2 Linecode=1P_UG_AL_1/0_Brenau_2

New Line.l(r:p7udm535-p7udt131lv) Units=km Length=0.0440396 bus1=p7udt131lv.1.2 bus2=p7udm535.1.2 switch=n enabled=y phases=2 Linecode=1P_UG_AL_1/0_Brenau_2

New Line.l(r:p7udm538-p7ulv464) Units=km Length=0.0128065 bus1=p7udm538.1.2 bus2=p7ulv464.1.2 switch=n enabled=y phases=2 Linecode=1P_UG_AL_1/0_Brenau_2

New Line.l(r:p7udm538-p7udt132lv) Units=km Length=0.0425649 bus1=p7udt132lv.1.2 bus2=p7udm538.1.2 switch=n enabled=y phases=2 Linecode=1P_UG_AL_1/0_Brenau_2

New Line.l(r:p7udm539-p7ulv472) Units=km Length=0.029879 bus1=p7udm539.1.2 bus2=p7ulv472.1.2 switch=n enabled=y phases=2 Linecode=1P_UG_AL_1/0_Brenau_2

New Line.l(r:p7udm537-p7ulv451) Units=km Length=0.017244200000000005 bus1=p7udm537.1.2 bus2=p7ulv451.1.2 switch=n enabled=y phases=2 Linecode=1P_UG_AL_1/0_Brenau_2

New Line.l(r:p7udm537-p7udm539) Units=km Length=0.0254581 bus1=p7udm539.1.2 bus2=p7udm537.1.2 switch=n enabled=y phases=2 Linecode=1P_UG_AL_1/0_Brenau_2

New Line.l(r:p7udm539-p7udt132lv) Units=km Length=0.009307120000000002 bus1=p7udt132lv.1.2 bus2=p7udm539.1.2 switch=n enabled=y phases=2 Linecode=1P_UG_AL_1/0_Brenau_2

New Line.l(r:p7udt133lv-p7ulv462) Units=km Length=0.0235685 bus1=p7udt133lv.1.2 bus2=p7ulv462.1.2 switch=n enabled=y phases=2 Linecode=1P_UG_AL_1/0_Brenau_2

New Line.l(r:p7udt135lv-p7ulv469) Units=km Length=0.0157205 bus1=p7udt135lv.1.2 bus2=p7ulv469.1.2 switch=n enabled=y phases=2 Linecode=1P_UG_AL_1/0_Brenau_2

New Line.l(r:p7udt136lv-p7ulv471) Units=km Length=0.0167206 bus1=p7udt136lv.1.2 bus2=p7ulv471.1.2 switch=n enabled=y phases=2 Linecode=1P_UG_AL_1/0_Brenau_2

New Line.l(r:p7udt137lv-p7ulv478) Units=km Length=0.074456 bus1=p7udt137lv.1.2 bus2=p7ulv478.1.2 switch=n enabled=y phases=2 Linecode=1P_UG_AL_1/0_Brenau_2

New Line.l(r:p7udm547-p7ulv7308) Units=km Length=0.0104542 bus1=p7udm547.1.2 bus2=p7ulv7308.1.2 switch=n enabled=y phases=2 Linecode=1P_UG_AL_1/0_Brenau_2

New Line.l(r:p7udm547-p7udt137lv) Units=km Length=0.0097135 bus1=p7udt137lv.1.2 bus2=p7udm547.1.2 switch=n enabled=y phases=2 Linecode=1P_UG_AL_1/0_Brenau_2

New Line.l(r:p7udm641-p7ulv563) Units=km Length=0.047995 bus1=p7udm641.1.2 bus2=p7ulv563.1.2 switch=n enabled=y phases=2 Linecode=1P_OH_AL_4/0_Zuzara_2

New Line.l(r:p7udm642-p7ulv565) Units=km Length=0.00881518 bus1=p7udm642.1.2 bus2=p7ulv565.1.2 switch=n enabled=y phases=2 Linecode=1P_OH_AL_2/0_Rucina_2

New Line.l(r:p7udm641-p7udm642) Units=km Length=0.0776105 bus1=p7udm641.1.2 bus2=p7udm642.1.2 switch=n enabled=y phases=2 Linecode=1P_OH_AL_4/0_Zuzara_2

New Line.l(r:p7udm641-p7udt169lv) Units=km Length=0.0180317 bus1=p7udt169lv.1.2 bus2=p7udm641.1.2 switch=n enabled=y phases=2 Linecode=1P_OH_AL_2/0_Rucina_2

New Line.l(r:p7udm645-p7ulv572) Units=km Length=0.021804000000000004 bus1=p7udm645.1.2 bus2=p7ulv572.1.2 switch=n enabled=y phases=2 Linecode=1P_UG_AL_1/0_Brenau_2

New Line.l(r:p7udm643-p7ulv568) Units=km Length=0.00531004 bus1=p7udm643.1.2 bus2=p7ulv568.1.2 switch=n enabled=y phases=2 Linecode=1P_UG_AL_1/0_Brenau_2

New Line.l(r:p7udm643-p7ulv571) Units=km Length=0.0189202 bus1=p7udm643.1.2 bus2=p7ulv571.1.2 switch=n enabled=y phases=2 Linecode=1P_UG_AL_1/0_Brenau_2

New Line.l(r:p7udm643-p7udm645) Units=km Length=0.0455279 bus1=p7udm645.1.2 bus2=p7udm643.1.2 switch=n enabled=y phases=2 Linecode=1P_UG_AL_1/0_Brenau_2

New Line.l(r:p7udm645-p7udt169lv) Units=km Length=0.00901584 bus1=p7udt169lv.1.2 bus2=p7udm645.1.2 switch=n enabled=y phases=2 Linecode=1P_UG_AL_1/0_Brenau_2

New Line.l(r:p7udt173lv-p7ulv573) Units=km Length=0.006792390000000001 bus1=p7udt173lv.1.2 bus2=p7ulv573.1.2 switch=n enabled=y phases=2 Linecode=1P_UG_AL_1/0_Brenau_2

New Line.l(r:p7udm1517-p7ulv1370) Units=km Length=0.0149193 bus1=p7udm1517.1.2 bus2=p7ulv1370.1.2 switch=n enabled=y phases=2 Linecode=1P_UG_AL_1/0_Brenau_2

New Line.l(r:p7udm1517-p7ulv1372) Units=km Length=0.00804159 bus1=p7udm1517.1.2 bus2=p7ulv1372.1.2 switch=n enabled=y phases=2 Linecode=1P_UG_AL_1/0_Brenau_2

New Line.l(r:p7udm1517-p7udt424lv) Units=km Length=0.0463793 bus1=p7udt424lv.1.2 bus2=p7udm1517.1.2 switch=n enabled=y phases=2 Linecode=1P_UG_AL_1/0_Brenau_2

New Line.l(r:p7udm1520-p7ulv1396) Units=km Length=0.0224489 bus1=p7udm1520.1.2 bus2=p7ulv1396.1.2 switch=n enabled=y phases=2 Linecode=1P_UG_AL_1/0_Brenau_2

New Line.l(r:p7udm1519-p7ulv1373) Units=km Length=0.0079177 bus1=p7udm1519.1.2 bus2=p7ulv1373.1.2 switch=n enabled=y phases=2 Linecode=1P_OH_AL_2/0_Rucina_2

New Line.l(r:p7udm1521-p7ulv1402) Units=km Length=0.0067966 bus1=p7udm1521.1.2 bus2=p7ulv1402.1.2 switch=n enabled=y phases=2 Linecode=1P_OH_AL_2/0_Rucina_2

New Line.l(r:p7udm1519-p7udm1521) Units=km Length=0.0190812 bus1=p7udm1519.1.2 bus2=p7udm1521.1.2 switch=n enabled=y phases=2 Linecode=1P_OH_AL_2/0_Rucina_2

New Line.l(r:p7udm1519-p7udm1520) Units=km Length=0.0580578 bus1=p7udm1520.1.2 bus2=p7udm1519.1.2 switch=n enabled=y phases=2 Linecode=1P_OH_AL_4/0_Zuzara_2

New Line.l(r:p7udm1520-p7udt424lv) Units=km Length=0.0099503 bus1=p7udt424lv.1.2 bus2=p7udm1520.1.2 switch=n enabled=y phases=2 Linecode=1P_UG_AL_1/0_Brenau_2

New Line.l(r:p7udt425lv-p7ulv1383) Units=km Length=0.0341059 bus1=p7udt425lv.1.2 bus2=p7ulv1383.1.2 switch=n enabled=y phases=2 Linecode=1P_UG_AL_1/0_Brenau_2

New Line.l(r:p7udt425lv-p7ulv1388) Units=km Length=0.00440991 bus1=p7udt425lv.1.2 bus2=p7ulv1388.1.2 switch=n enabled=y phases=2 Linecode=1P_UG_AL_1/0_Brenau_2

New Line.l(r:p7udt425lv-p7ulv1391) Units=km Length=0.012560500000000002 bus1=p7udt425lv.1.2 bus2=p7ulv1391.1.2 switch=n enabled=y phases=2 Linecode=1P_UG_AL_1/0_Brenau_2

New Line.l(r:p7udm1523-p7ulv1374) Units=km Length=0.0167177 bus1=p7udm1523.1.2 bus2=p7ulv1374.1.2 switch=n enabled=y phases=2 Linecode=1P_UG_AL_1/0_Brenau_2

New Line.l(r:p7udm1523-p7ulv1380) Units=km Length=0.00610447 bus1=p7udm1523.1.2 bus2=p7ulv1380.1.2 switch=n enabled=y phases=2 Linecode=1P_UG_AL_1/0_Brenau_2

New Line.l(r:p7udm1523-p7ulv1418) Units=km Length=0.00715443 bus1=p7udm1523.1.2 bus2=p7ulv1418.1.2 switch=n enabled=y phases=2 Linecode=1P_UG_AL_1/0_Brenau_2

New Line.l(r:p7udm1522-p7ulv1371) Units=km Length=0.0136388 bus1=p7udm1522.1.2 bus2=p7ulv1371.1.2 switch=n enabled=y phases=2 Linecode=1P_UG_AL_1/0_Brenau_2

New Line.l(r:p7udm1522-p7udm1523) Units=km Length=0.0182257 bus1=p7udm1523.1.2 bus2=p7udm1522.1.2 switch=n enabled=y phases=2 Linecode=1P_UG_AL_1/0_Brenau_2

New Line.l(r:p7udm1523-p7udt425lv) Units=km Length=0.0286859 bus1=p7udt425lv.1.2 bus2=p7udm1523.1.2 switch=n enabled=y phases=2 Linecode=1P_UG_AL_1/0_Brenau_2

New Line.l(r:p7udm1524-p7ulv1375) Units=km Length=0.00736355 bus1=p7udm1524.1.2 bus2=p7ulv1375.1.2 switch=n enabled=y phases=2 Linecode=1P_OH_AL_2/0_Rucina_2

New Line.l(r:p7udm1529-p7ulv1393) Units=km Length=0.0113149 bus1=p7udm1529.1.2 bus2=p7ulv1393.1.2 switch=n enabled=y phases=2 Linecode=1P_OH_AL_2/0_Rucina_2

New Line.l(r:p7udm1524-p7udm1529) Units=km Length=0.0118841 bus1=p7udm1524.1.2 bus2=p7udm1529.1.2 switch=n enabled=y phases=2 Linecode=1P_OH_AL_2/0_Rucina_2

New Line.l(r:p7udm1524-p7udt425lv) Units=km Length=0.0557518 bus1=p7udt425lv.1.2 bus2=p7udm1524.1.2 switch=n enabled=y phases=2 Linecode=1P_OH_AL_4/0_Zuzara_2

New Line.l(r:p7udm1536-p7ulv1426) Units=km Length=0.0643436 bus1=p7udm1536.1.2 bus2=p7ulv1426.1.2 switch=n enabled=y phases=2 Linecode=1P_UG_AL_1/0_Brenau_2

New Line.l(r:p7udm1536-p7ulv1436) Units=km Length=0.0370221 bus1=p7udm1536.1.2 bus2=p7ulv1436.1.2 switch=n enabled=y phases=2 Linecode=1P_UG_AL_1/0_Brenau_2

New Line.l(r:p7udm1536-p7ulv1437) Units=km Length=0.0163825 bus1=p7udm1536.1.2 bus2=p7ulv1437.1.2 switch=n enabled=y phases=2 Linecode=1P_UG_AL_1/0_Brenau_2

New Line.l(r:p7udm1532-p7ulv1415) Units=km Length=0.0129747 bus1=p7udm1532.1.2 bus2=p7ulv1415.1.2 switch=n enabled=y phases=2 Linecode=1P_UG_AL_1/0_Brenau_2

New Line.l(r:p7udm1532-p7ulv1419) Units=km Length=0.0574359 bus1=p7udm1532.1.2 bus2=p7ulv1419.1.2 switch=n enabled=y phases=2 Linecode=1P_UG_AL_1/0_Brenau_2

New Line.l(r:p7udm1532-p7ulv1423) Units=km Length=0.059503 bus1=p7udm1532.1.2 bus2=p7ulv1423.1.2 switch=n enabled=y phases=2 Linecode=1P_UG_AL_1/0_Brenau_2

New Line.l(r:p7udm1532-p7ulv1440) Units=km Length=0.0430951 bus1=p7udm1532.1.2 bus2=p7ulv1440.1.2 switch=n enabled=y phases=2 Linecode=1P_UG_AL_1/0_Brenau_2

New Line.l(r:p7udm1532-p7ulv1441) Units=km Length=0.0377724 bus1=p7udm1532.1.2 bus2=p7ulv1441.1.2 switch=n enabled=y phases=2 Linecode=1P_UG_AL_1/0_Brenau_2

New Line.l(r:p7udm1540-p7ulv1434) Units=km Length=0.0384764 bus1=p7udm1540.1.2 bus2=p7ulv1434.1.2 switch=n enabled=y phases=2 Linecode=1P_UG_AL_1/0_Brenau_2

New Line.l(r:p7udm1540-p7ulv1438) Units=km Length=0.0102206 bus1=p7udm1540.1.2 bus2=p7ulv1438.1.2 switch=n enabled=y phases=2 Linecode=1P_UG_AL_1/0_Brenau_2

New Line.l(r:p7udm1539-p7ulv1433) Units=km Length=0.00551661 bus1=p7udm1539.1.2 bus2=p7ulv1433.1.2 switch=n enabled=y phases=2 Linecode=1P_UG_AL_1/0_Brenau_2

New Line.l(r:p7udm1539-p7udm1540) Units=km Length=0.0197589 bus1=p7udm1540.1.2 bus2=p7udm1539.1.2 switch=n enabled=y phases=2 Linecode=1P_UG_AL_1/0_Brenau_2

New Line.l(r:p7udm1532-p7udm1540) Units=km Length=0.0284005 bus1=p7udm1532.1.2 bus2=p7udm1540.1.2 switch=n enabled=y phases=2 Linecode=1P_UG_AL_1/0_Brenau_2

New Line.l(r:p7udm1532-p7udm1536) Units=km Length=0.00886387 bus1=p7udm1536.1.2 bus2=p7udm1532.1.2 switch=n enabled=y phases=2 Linecode=1P_UG_AL_4/0_Sweetbriar_2

New Line.l(r:p7udm1536-p7udt426lv) Units=km Length=0.00886387 bus1=p7udt426lv.1.2 bus2=p7udm1536.1.2 switch=n enabled=y phases=2 Linecode=1P_UG_AL_4/0_Sweetbriar_2

New Line.l(r:p7udm1547-p7ulv1445) Units=km Length=0.0694598 bus1=p7udm1547.1.2 bus2=p7ulv1445.1.2 switch=n enabled=y phases=2 Linecode=1P_UG_AL_1/0_Brenau_2

New Line.l(r:p7udm1534-p7ulv1420) Units=km Length=0.0453998 bus1=p7udm1534.1.2 bus2=p7ulv1420.1.2 switch=n enabled=y phases=2 Linecode=1P_UG_AL_1/0_Brenau_2

New Line.l(r:p7udm1534-p7ulv1435) Units=km Length=0.0200738 bus1=p7udm1534.1.2 bus2=p7ulv1435.1.2 switch=n enabled=y phases=2 Linecode=1P_UG_AL_1/0_Brenau_2

New Line.l(r:p7udm1538-p7ulv1430) Units=km Length=0.00496146 bus1=p7udm1538.1.2 bus2=p7ulv1430.1.2 switch=n enabled=y phases=2 Linecode=1P_UG_AL_1/0_Brenau_2

New Line.l(r:p7udm1537-p7ulv1429) Units=km Length=0.019426500000000003 bus1=p7udm1537.1.2 bus2=p7ulv1429.1.2 switch=n enabled=y phases=2 Linecode=1P_UG_AL_1/0_Brenau_2

New Line.l(r:p7udm1531-p7ulv1376) Units=km Length=0.024277200000000002 bus1=p7udm1531.1.2 bus2=p7ulv1376.1.2 switch=n enabled=y phases=2 Linecode=1P_UG_AL_1/0_Brenau_2

New Line.l(r:p7udm1531-p7udm1537) Units=km Length=0.0237152 bus1=p7udm1537.1.2 bus2=p7udm1531.1.2 switch=n enabled=y phases=2 Linecode=1P_UG_AL_1/0_Brenau_2

New Line.l(r:p7udm1537-p7udm1538) Units=km Length=0.0079019 bus1=p7udm1538.1.2 bus2=p7udm1537.1.2 switch=n enabled=y phases=2 Linecode=1P_UG_AL_1/0_Brenau_2

New Line.l(r:p7udm1534-p7udm1538) Units=km Length=0.00886387 bus1=p7udm1534.1.2 bus2=p7udm1538.1.2 switch=n enabled=y phases=2 Linecode=1P_UG_AL_1/0_Brenau_2

New Line.l(r:p7udm1534-p7udm1547) Units=km Length=0.00886387 bus1=p7udm1547.1.2 bus2=p7udm1534.1.2 switch=n enabled=y phases=2 Linecode=1P_UG_AL_2/0_Converse_2

New Line.l(r:p7udm1547-p7udt426lv) Units=km Length=0.00886387 bus1=p7udt426lv.1.2 bus2=p7udm1547.1.2 switch=n enabled=y phases=2 Linecode=1P_UG_AL_4/0_Sweetbriar_2

New Line.l(r:p7udt427lv-p7ulv1377) Units=km Length=0.0276841 bus1=p7udt427lv.1.2 bus2=p7ulv1377.1.2 switch=n enabled=y phases=2 Linecode=1P_OH_AL_4/0_Zuzara_2

New Line.l(r:p7udt427lv-p7ulv1401) Units=km Length=0.0304479 bus1=p7udt427lv.1.2 bus2=p7ulv1401.1.2 switch=n enabled=y phases=2 Linecode=1P_OH_AL_4/0_Zuzara_2

New Line.l(r:p7udm1550-p7ulv1386) Units=km Length=0.023429 bus1=p7udm1550.1.2 bus2=p7ulv1386.1.2 switch=n enabled=y phases=2 Linecode=1P_OH_AL_2/0_Rucina_2

New Line.l(r:p7udm1550-p7ulv1403) Units=km Length=0.00607816 bus1=p7udm1550.1.2 bus2=p7ulv1403.1.2 switch=n enabled=y phases=2 Linecode=1P_OH_AL_2/0_Rucina_2

New Line.l(r:p7udm1549-p7ulv1378) Units=km Length=0.0101619 bus1=p7udm1549.1.2 bus2=p7ulv1378.1.2 switch=n enabled=y phases=2 Linecode=1P_OH_AL_2/0_Rucina_2

New Line.l(r:p7udm1549-p7udm1550) Units=km Length=0.0190812 bus1=p7udm1550.1.2 bus2=p7udm1549.1.2 switch=n enabled=y phases=2 Linecode=1P_OH_AL_2/0_Rucina_2

New Line.l(r:p7udm1550-p7udt427lv) Units=km Length=0.0190812 bus1=p7udt427lv.1.2 bus2=p7udm1550.1.2 switch=n enabled=y phases=2 Linecode=1P_OH_AL_2/0_Rucina_2

New Line.l(r:p7udm1551-p7ulv1399) Units=km Length=0.0139408 bus1=p7udm1551.1.2 bus2=p7ulv1399.1.2 switch=n enabled=y phases=2 Linecode=1P_OH_AL_2/0_Rucina_2

New Line.l(r:p7udm1551-p7udt427lv) Units=km Length=0.0190812 bus1=p7udt427lv.1.2 bus2=p7udm1551.1.2 switch=n enabled=y phases=2 Linecode=1P_OH_AL_2/0_Rucina_2

New Line.l(r:p7udm1554-p7ulv1379) Units=km Length=0.0133971 bus1=p7udm1554.1.2 bus2=p7ulv1379.1.2 switch=n enabled=y phases=2 Linecode=1P_UG_AL_1/0_Brenau_2

New Line.l(r:p7udm1554-p7udt428lv) Units=km Length=0.020024200000000002 bus1=p7udt428lv.1.2 bus2=p7udm1554.1.2 switch=n enabled=y phases=2 Linecode=1P_UG_AL_1/0_Brenau_2

New Line.l(r:p7udm1555-p7ulv1394) Units=km Length=0.0213221 bus1=p7udm1555.1.2 bus2=p7ulv1394.1.2 switch=n enabled=y phases=2 Linecode=1P_OH_AL_2/0_Rucina_2

New Line.l(r:p7udm1555-p7udt428lv) Units=km Length=0.0577756 bus1=p7udt428lv.1.2 bus2=p7udm1555.1.2 switch=n enabled=y phases=2 Linecode=1P_OH_AL_4/0_Zuzara_2

New Line.l(r:p7udm1556-p7ulv1381) Units=km Length=0.0522286 bus1=p7udm1556.1.2 bus2=p7ulv1381.1.2 switch=n enabled=y phases=2 Linecode=1P_OH_AL_4/0_Zuzara_2

New Line.l(r:p7udm1556-p7udt429lv) Units=km Length=0.0175427 bus1=p7udt429lv.1.2 bus2=p7udm1556.1.2 switch=n enabled=y phases=2 Linecode=1P_OH_AL_2/0_Rucina_2

New Line.l(r:p7udm1557-p7ulv14440) Units=km Length=0.0366547 bus1=p7udm1557.1.2 bus2=p7ulv14440.1.2 switch=n enabled=y phases=2 Linecode=1P_OH_AL_4/0_Zuzara_2

New Line.l(r:p7udm1557-p7udt429lv) Units=km Length=0.017446 bus1=p7udt429lv.1.2 bus2=p7udm1557.1.2 switch=n enabled=y phases=2 Linecode=1P_OH_AL_2/0_Rucina_2

New Line.l(r:p7udm1561-p7ulv1384) Units=km Length=0.0109197 bus1=p7udm1561.1.2 bus2=p7ulv1384.1.2 switch=n enabled=y phases=2 Linecode=1P_OH_AL_2/0_Rucina_2

New Line.l(r:p7udm1561-p7udt431lv) Units=km Length=0.0933249 bus1=p7udt431lv.1.2 bus2=p7udm1561.1.2 switch=n enabled=y phases=2 Linecode=1P_OH_AL_4/0_Zuzara_2

New Line.l(r:p7udm1562-p7ulv1387) Units=km Length=0.0113776 bus1=p7udm1562.1.2 bus2=p7ulv1387.1.2 switch=n enabled=y phases=2 Linecode=1P_OH_AL_2/0_Rucina_2

New Line.l(r:p7udm1562-p7ulv1400) Units=km Length=0.024323500000000005 bus1=p7udm1562.1.2 bus2=p7ulv1400.1.2 switch=n enabled=y phases=2 Linecode=1P_OH_AL_2/0_Rucina_2

New Line.l(r:p7udm1562-p7udt431lv) Units=km Length=0.0190812 bus1=p7udt431lv.1.2 bus2=p7udm1562.1.2 switch=n enabled=y phases=2 Linecode=1P_OH_AL_2/0_Rucina_2

New Line.l(r:p7udm1563-p7ulv1392) Units=km Length=0.027565 bus1=p7udm1563.1.2 bus2=p7ulv1392.1.2 switch=n enabled=y phases=2 Linecode=1P_OH_AL_4/0_Zuzara_2

New Line.l(r:p7udm1563-p7udt431lv) Units=km Length=0.046972400000000004 bus1=p7udt431lv.1.2 bus2=p7udm1563.1.2 switch=n enabled=y phases=2 Linecode=1P_OH_AL_4/0_Zuzara_2

New Line.l(r:p7udm1566-p7ulv1390) Units=km Length=0.0241781 bus1=p7udm1566.1.2 bus2=p7ulv1390.1.2 switch=n enabled=y phases=2 Linecode=1P_UG_AL_1/0_Brenau_2

New Line.l(r:p7udm1566-p7udt433lv) Units=km Length=0.0408395 bus1=p7udt433lv.1.2 bus2=p7udm1566.1.2 switch=n enabled=y phases=2 Linecode=1P_UG_AL_1/0_Brenau_2

New Line.l(r:p7udm1567-p7ulv1395) Units=km Length=0.023084600000000004 bus1=p7udm1567.1.2 bus2=p7ulv1395.1.2 switch=n enabled=y phases=2 Linecode=1P_UG_AL_1/0_Brenau_2

New Line.l(r:p7udm1568-p7ulv1397) Units=km Length=0.0597631 bus1=p7udm1568.1.2 bus2=p7ulv1397.1.2 switch=n enabled=y phases=2 Linecode=1P_UG_AL_1/0_Brenau_2

New Line.l(r:p7udm1567-p7udm1568) Units=km Length=0.0183618 bus1=p7udm1567.1.2 bus2=p7udm1568.1.2 switch=n enabled=y phases=2 Linecode=1P_UG_AL_1/0_Brenau_2

New Line.l(r:p7udm1567-p7udt433lv) Units=km Length=0.0183554 bus1=p7udt433lv.1.2 bus2=p7udm1567.1.2 switch=n enabled=y phases=2 Linecode=1P_UG_AL_1/0_Brenau_2

New Line.l(r:p7udt441lv-p7ulv1427) Units=km Length=0.0566666 bus1=p7udt441lv.1.2 bus2=p7ulv1427.1.2 switch=n enabled=y phases=2 Linecode=1P_UG_AL_1/0_Brenau_2

New Line.l(r:p7udt441lv-p7ulv1446) Units=km Length=0.0332982 bus1=p7udt441lv.1.2 bus2=p7ulv1446.1.2 switch=n enabled=y phases=2 Linecode=1P_UG_AL_1/0_Brenau_2

New Line.l(r:p7udt441lv-p7ulv14462) Units=km Length=0.0268328 bus1=p7udt441lv.1.2 bus2=p7ulv14462.1.2 switch=n enabled=y phases=2 Linecode=1P_UG_AL_1/0_Brenau_2

New Line.l(r:p7udm1587-p7ulv1432) Units=km Length=0.0353885 bus1=p7udm1587.1.2 bus2=p7ulv1432.1.2 switch=n enabled=y phases=2 Linecode=1P_UG_AL_1/0_Brenau_2

New Line.l(r:p7udm1582-p7ulv1421) Units=km Length=0.0018554 bus1=p7udm1582.1.2 bus2=p7ulv1421.1.2 switch=n enabled=y phases=2 Linecode=1P_UG_AL_1/0_Brenau_2

New Line.l(r:p7udm1581-p7ulv1417) Units=km Length=0.0261816 bus1=p7udm1581.1.2 bus2=p7ulv1417.1.2 switch=n enabled=y phases=2 Linecode=1P_UG_AL_1/0_Brenau_2

New Line.l(r:p7udm1581-p7ulv1425) Units=km Length=0.0464544 bus1=p7udm1581.1.2 bus2=p7ulv1425.1.2 switch=n enabled=y phases=2 Linecode=1P_UG_AL_1/0_Brenau_2

New Line.l(r:p7udm1586-p7ulv1431) Units=km Length=0.00638349 bus1=p7udm1586.1.2 bus2=p7ulv1431.1.2 switch=n enabled=y phases=2 Linecode=1P_UG_AL_1/0_Brenau_2

New Line.l(r:p7udm1586-p7ulv1443) Units=km Length=0.0327357 bus1=p7udm1586.1.2 bus2=p7ulv1443.1.2 switch=n enabled=y phases=2 Linecode=1P_UG_AL_1/0_Brenau_2

New Line.l(r:p7udm1581-p7udm1586) Units=km Length=0.009607150000000002 bus1=p7udm1581.1.2 bus2=p7udm1586.1.2 switch=n enabled=y phases=2 Linecode=1P_UG_AL_1/0_Brenau_2

New Line.l(r:p7udm1581-p7udm1582) Units=km Length=0.00962063 bus1=p7udm1582.1.2 bus2=p7udm1581.1.2 switch=n enabled=y phases=2 Linecode=1P_UG_AL_1/0_Brenau_2

New Line.l(r:p7udm1582-p7udm1587) Units=km Length=0.009607150000000002 bus1=p7udm1587.1.2 bus2=p7udm1582.1.2 switch=n enabled=y phases=2 Linecode=1P_UG_AL_1/0_Brenau_2

New Line.l(r:p7udm1587-p7udt441lv) Units=km Length=0.00961175 bus1=p7udt441lv.1.2 bus2=p7udm1587.1.2 switch=n enabled=y phases=2 Linecode=1P_UG_AL_1/0_Brenau_2

New Line.l(r:p7udm1588-p7ulv1439) Units=km Length=0.00524314 bus1=p7udm1588.1.2 bus2=p7ulv1439.1.2 switch=n enabled=y phases=2 Linecode=1P_UG_AL_1/0_Brenau_2

New Line.l(r:p7udm1588-p7ulv1442) Units=km Length=0.0194861 bus1=p7udm1588.1.2 bus2=p7ulv1442.1.2 switch=n enabled=y phases=2 Linecode=1P_UG_AL_1/0_Brenau_2

New Line.l(r:p7udm1580-p7ulv1416) Units=km Length=0.0402601 bus1=p7udm1580.1.2 bus2=p7ulv1416.1.2 switch=n enabled=y phases=2 Linecode=1P_UG_AL_1/0_Brenau_2

New Line.l(r:p7udm1580-p7ulv1422) Units=km Length=0.0490416 bus1=p7udm1580.1.2 bus2=p7ulv1422.1.2 switch=n enabled=y phases=2 Linecode=1P_UG_AL_1/0_Brenau_2

New Line.l(r:p7udm1593-p7ulv14468) Units=km Length=0.007172020000000001 bus1=p7udm1593.1.2 bus2=p7ulv14468.1.2 switch=n enabled=y phases=2 Linecode=1P_UG_AL_1/0_Brenau_2

New Line.l(r:p7udm1580-p7udm1593) Units=km Length=0.0288349 bus1=p7udm1580.1.2 bus2=p7udm1593.1.2 switch=n enabled=y phases=2 Linecode=1P_UG_AL_1/0_Brenau_2

New Line.l(r:p7udm1580-p7udm1588) Units=km Length=0.0192278 bus1=p7udm1588.1.2 bus2=p7udm1580.1.2 switch=n enabled=y phases=2 Linecode=1P_UG_AL_1/0_Brenau_2

New Line.l(r:p7udm1588-p7udt441lv) Units=km Length=0.00961175 bus1=p7udt441lv.1.2 bus2=p7udm1588.1.2 switch=n enabled=y phases=2 Linecode=1P_UG_AL_1/0_Brenau_2

New Line.l(r:p7udt442lv-p7ulv1424) Units=km Length=0.0638918 bus1=p7udt442lv.1.2 bus2=p7ulv1424.1.2 switch=n enabled=y phases=2 Linecode=1P_OH_AL_4/0_Zuzara_2

New Line.l(r:p7udt443lv-p7ulv1428) Units=km Length=0.0491849 bus1=p7udt443lv.1.2 bus2=p7ulv1428.1.2 switch=n enabled=y phases=2 Linecode=1P_OH_AL_4/0_Zuzara_2

New Line.l(r:p7udm1596-p7ulv1444) Units=km Length=0.019032 bus1=p7udm1596.1.2 bus2=p7ulv1444.1.2 switch=n enabled=y phases=2 Linecode=1P_UG_AL_1/0_Brenau_2

New Line.l(r:p7udm1596-p7udt444lv) Units=km Length=0.0190791 bus1=p7udt444lv.1.2 bus2=p7udm1596.1.2 switch=n enabled=y phases=2 Linecode=1P_UG_AL_1/0_Brenau_2

New Line.l(r:p7udm1597-p7ulv14459) Units=km Length=0.0519828 bus1=p7udm1597.1.2 bus2=p7ulv14459.1.2 switch=n enabled=y phases=2 Linecode=1P_UG_AL_1/0_Brenau_2

New Line.l(r:p7udm1597-p7ulv14473) Units=km Length=0.0694459 bus1=p7udm1597.1.2 bus2=p7ulv14473.1.2 switch=n enabled=y phases=2 Linecode=1P_UG_AL_1/0_Brenau_2

New Line.l(r:p7udm1597-p7udt444lv) Units=km Length=0.00919959 bus1=p7udt444lv.1.2 bus2=p7udm1597.1.2 switch=n enabled=y phases=2 Linecode=1P_UG_AL_1/0_Brenau_2

New Line.l(r:p7udt918lv-p7ulv3412) Units=km Length=0.012994800000000003 bus1=p7udt918lv.1.2 bus2=p7ulv3412.1.2 switch=n enabled=y phases=2 Linecode=1P_UG_AL_1/0_Brenau_2

New Line.l(r:p7udm3820-p7ulv3431) Units=km Length=0.0091043 bus1=p7udm3820.1.2 bus2=p7ulv3431.1.2 switch=n enabled=y phases=2 Linecode=1P_UG_AL_1/0_Brenau_2

New Line.l(r:p7udm3821-p7ulv3668) Units=km Length=0.0117397 bus1=p7udm3821.1.2 bus2=p7ulv3668.1.2 switch=n enabled=y phases=2 Linecode=1P_UG_AL_1/0_Brenau_2

New Line.l(r:p7udm3820-p7udm3821) Units=km Length=0.0193048 bus1=p7udm3820.1.2 bus2=p7udm3821.1.2 switch=n enabled=y phases=2 Linecode=1P_UG_AL_1/0_Brenau_2

New Line.l(r:p7udm3820-p7udt918lv) Units=km Length=0.0259496 bus1=p7udt918lv.1.2 bus2=p7udm3820.1.2 switch=n enabled=y phases=2 Linecode=1P_UG_AL_1/0_Brenau_2

New Line.l(r:p7udm3822-p7ulv3888) Units=km Length=0.0224937 bus1=p7udm3822.1.2 bus2=p7ulv3888.1.2 switch=n enabled=y phases=2 Linecode=1P_UG_AL_1/0_Brenau_2

New Line.l(r:p7udm3822-p7ulv3912) Units=km Length=0.024827500000000002 bus1=p7udm3822.1.2 bus2=p7ulv3912.1.2 switch=n enabled=y phases=2 Linecode=1P_UG_AL_1/0_Brenau_2

New Line.l(r:p7udm3822-p7udt918lv) Units=km Length=0.0244474 bus1=p7udt918lv.1.2 bus2=p7udm3822.1.2 switch=n enabled=y phases=2 Linecode=1P_UG_AL_1/0_Brenau_2

New Line.l(r:p7udt955lv-p7ulv4215) Units=km Length=0.0083421 bus1=p7udt955lv.1.2 bus2=p7ulv4215.1.2 switch=n enabled=y phases=2 Linecode=1P_UG_AL_1/0_Brenau_2

New Line.l(r:p7udm3950-p7ulv3607) Units=km Length=0.0506031 bus1=p7udm3950.1.2 bus2=p7ulv3607.1.2 switch=n enabled=y phases=2 Linecode=1P_UG_AL_1/0_Brenau_2

New Line.l(r:p7udm3950-p7ulv4096) Units=km Length=0.0133251 bus1=p7udm3950.1.2 bus2=p7ulv4096.1.2 switch=n enabled=y phases=2 Linecode=1P_UG_AL_1/0_Brenau_2

New Line.l(r:p7udm3954-p7ulv4147) Units=km Length=0.0150377 bus1=p7udm3954.1.2 bus2=p7ulv4147.1.2 switch=n enabled=y phases=2 Linecode=1P_UG_AL_1/0_Brenau_2

New Line.l(r:p7udm3950-p7udm3954) Units=km Length=0.029807800000000002 bus1=p7udm3950.1.2 bus2=p7udm3954.1.2 switch=n enabled=y phases=2 Linecode=1P_UG_AL_1/0_Brenau_2

New Line.l(r:p7udm3950-p7udt955lv) Units=km Length=0.0171418 bus1=p7udt955lv.1.2 bus2=p7udm3950.1.2 switch=n enabled=y phases=2 Linecode=1P_UG_AL_1/0_Brenau_2

New Line.l(r:p7udm3952-p7ulv4126) Units=km Length=0.0481745 bus1=p7udm3952.1.2 bus2=p7ulv4126.1.2 switch=n enabled=y phases=2 Linecode=1P_UG_AL_1/0_Brenau_2

New Line.l(r:p7udm3952-p7ulv4140) Units=km Length=0.014722000000000002 bus1=p7udm3952.1.2 bus2=p7ulv4140.1.2 switch=n enabled=y phases=2 Linecode=1P_UG_AL_1/0_Brenau_2

New Line.l(r:p7udm3952-p7udt955lv) Units=km Length=0.0257105 bus1=p7udt955lv.1.2 bus2=p7udm3952.1.2 switch=n enabled=y phases=2 Linecode=1P_UG_AL_1/0_Brenau_2

New Line.l(r:p7udm3957-p7ulv3627) Units=km Length=0.0154748 bus1=p7udm3957.1.2 bus2=p7ulv3627.1.2 switch=n enabled=y phases=2 Linecode=1P_UG_AL_1/0_Brenau_2

New Line.l(r:p7udm3957-p7udt956lv) Units=km Length=0.0577248 bus1=p7udt956lv.1.2 bus2=p7udm3957.1.2 switch=n enabled=y phases=2 Linecode=1P_UG_AL_1/0_Brenau_2

New Line.l(r:p7udm3958-p7ulv4160) Units=km Length=0.030576900000000004 bus1=p7udm3958.1.2 bus2=p7ulv4160.1.2 switch=n enabled=y phases=2 Linecode=1P_UG_AL_1/0_Brenau_2

New Line.l(r:p7udm3956-p7ulv3612) Units=km Length=0.0392146 bus1=p7udm3956.1.2 bus2=p7ulv3612.1.2 switch=n enabled=y phases=2 Linecode=1P_UG_AL_1/0_Brenau_2

New Line.l(r:p7udm3956-p7udm3958) Units=km Length=0.0384865 bus1=p7udm3958.1.2 bus2=p7udm3956.1.2 switch=n enabled=y phases=2 Linecode=1P_UG_AL_1/0_Brenau_2

New Line.l(r:p7udm3958-p7udt956lv) Units=km Length=0.0096184 bus1=p7udt956lv.1.2 bus2=p7udm3958.1.2 switch=n enabled=y phases=2 Linecode=1P_UG_AL_1/0_Brenau_2

New Line.l(r:p7udt957lv-p7ulv3615) Units=km Length=0.00885484 bus1=p7udt957lv.1.2 bus2=p7ulv3615.1.2 switch=n enabled=y phases=2 Linecode=1P_UG_AL_1/0_Brenau_2

New Line.l(r:p7udt957lv-p7ulv3618) Units=km Length=0.0558582 bus1=p7udt957lv.1.2 bus2=p7ulv3618.1.2 switch=n enabled=y phases=2 Linecode=1P_UG_AL_1/0_Brenau_2

New Line.l(r:p7udt957lv-p7ulv3623) Units=km Length=0.0574621 bus1=p7udt957lv.1.2 bus2=p7ulv3623.1.2 switch=n enabled=y phases=2 Linecode=1P_UG_AL_1/0_Brenau_2

New Line.l(r:p7udm3962-p7ulv3616) Units=km Length=0.0612622 bus1=p7udm3962.1.2 bus2=p7ulv3616.1.2 switch=n enabled=y phases=2 Linecode=1P_UG_AL_1/0_Brenau_2

New Line.l(r:p7udm3965-p7ulv4199) Units=km Length=0.0335852 bus1=p7udm3965.1.2 bus2=p7ulv4199.1.2 switch=n enabled=y phases=2 Linecode=1P_UG_AL_1/0_Brenau_2

New Line.l(r:p7udm3962-p7udm3965) Units=km Length=0.00994027 bus1=p7udm3962.1.2 bus2=p7udm3965.1.2 switch=n enabled=y phases=2 Linecode=1P_UG_AL_1/0_Brenau_2

New Line.l(r:p7udm3962-p7udt958lv) Units=km Length=0.0297985 bus1=p7udt958lv.1.2 bus2=p7udm3962.1.2 switch=n enabled=y phases=2 Linecode=1P_UG_AL_1/0_Brenau_2

New Line.l(r:p7udm3964-p7ulv4161) Units=km Length=0.0210565 bus1=p7udm3964.1.2 bus2=p7ulv4161.1.2 switch=n enabled=y phases=2 Linecode=1P_UG_AL_1/0_Brenau_2

New Line.l(r:p7udm3963-p7ulv3652) Units=km Length=0.0702809 bus1=p7udm3963.1.2 bus2=p7ulv3652.1.2 switch=n enabled=y phases=2 Linecode=1P_UG_AL_1/0_Brenau_2

New Line.l(r:p7udm3963-p7udm3964) Units=km Length=0.00993656 bus1=p7udm3964.1.2 bus2=p7udm3963.1.2 switch=n enabled=y phases=2 Linecode=1P_UG_AL_1/0_Brenau_2

New Line.l(r:p7udm3964-p7udt958lv) Units=km Length=0.0298022 bus1=p7udt958lv.1.2 bus2=p7udm3964.1.2 switch=n enabled=y phases=2 Linecode=1P_UG_AL_1/0_Brenau_2

New Line.l(r:p7udt962lv-p7ulv3632) Units=km Length=0.0572128 bus1=p7udt962lv.1.2 bus2=p7ulv3632.1.2 switch=n enabled=y phases=2 Linecode=1P_UG_AL_1/0_Brenau_2

New Line.l(r:p7udm3975-p7ulv3664) Units=km Length=0.0100725 bus1=p7udm3975.1.2 bus2=p7ulv3664.1.2 switch=n enabled=y phases=2 Linecode=1P_UG_AL_1/0_Brenau_2

New Line.l(r:p7udm3975-p7udt962lv) Units=km Length=0.0179761 bus1=p7udt962lv.1.2 bus2=p7udm3975.1.2 switch=n enabled=y phases=2 Linecode=1P_UG_AL_1/0_Brenau_2

New Line.l(r:p7udm3979-p7ulv3646) Units=km Length=0.0114281 bus1=p7udm3979.1.2 bus2=p7ulv3646.1.2 switch=n enabled=y phases=2 Linecode=1P_UG_AL_1/0_Brenau_2

New Line.l(r:p7udm3980-p7ulv3649) Units=km Length=0.00859814 bus1=p7udm3980.1.2 bus2=p7ulv3649.1.2 switch=n enabled=y phases=2 Linecode=1P_UG_AL_1/0_Brenau_2

New Line.l(r:p7udm3979-p7udm3980) Units=km Length=0.111761 bus1=p7udm3979.1.2 bus2=p7udm3980.1.2 switch=n enabled=y phases=2 Linecode=1P_UG_AL_1/0_Brenau_2

New Line.l(r:p7udm3979-p7udt965lv) Units=km Length=0.0196437 bus1=p7udt965lv.1.2 bus2=p7udm3979.1.2 switch=n enabled=y phases=2 Linecode=1P_UG_AL_1/0_Brenau_2

New Line.l(r:p7udm3982-p7ulv3658) Units=km Length=0.01579 bus1=p7udm3982.1.2 bus2=p7ulv3658.1.2 switch=n enabled=y phases=2 Linecode=1P_UG_AL_1/0_Brenau_2

New Line.l(r:p7udm3981-p7ulv3651) Units=km Length=0.0132819 bus1=p7udm3981.1.2 bus2=p7ulv3651.1.2 switch=n enabled=y phases=2 Linecode=1P_UG_AL_1/0_Brenau_2

New Line.l(r:p7udm3981-p7udm3982) Units=km Length=0.0190343 bus1=p7udm3982.1.2 bus2=p7udm3981.1.2 switch=n enabled=y phases=2 Linecode=1P_UG_AL_1/0_Brenau_2

New Line.l(r:p7udm3982-p7udt965lv) Units=km Length=0.0454827 bus1=p7udt965lv.1.2 bus2=p7udm3982.1.2 switch=n enabled=y phases=2 Linecode=1P_UG_AL_1/0_Brenau_2

New Line.l(r:p7udt1050lv-p7ulv3885) Units=km Length=0.084497 bus1=p7udt1050lv.1.2 bus2=p7ulv3885.1.2 switch=n enabled=y phases=2 Linecode=1P_UG_AL_1/0_Brenau_2

New Line.l(r:p7udt1050lv-p7ulv3895) Units=km Length=0.108185 bus1=p7udt1050lv.1.2 bus2=p7ulv3895.1.2 switch=n enabled=y phases=2 Linecode=1P_UG_AL_1/0_Brenau_2

New Line.l(r:p7udt1050lv-p7ulv3904) Units=km Length=0.115744 bus1=p7udt1050lv.1.2 bus2=p7ulv3904.1.2 switch=n enabled=y phases=2 Linecode=1P_UG_AL_1/0_Brenau_2

New Line.l(r:p7udt1050lv-p7ulv3906) Units=km Length=0.102936 bus1=p7udt1050lv.1.2 bus2=p7ulv3906.1.2 switch=n enabled=y phases=2 Linecode=1P_UG_AL_1/0_Brenau_2

New Line.l(r:p7udt1050lv-p7ulv3914) Units=km Length=0.069691 bus1=p7udt1050lv.1.2 bus2=p7ulv3914.1.2 switch=n enabled=y phases=2 Linecode=1P_UG_AL_1/0_Brenau_2

New Line.l(r:p7udt1050lv-p7ulv3916) Units=km Length=0.0794445 bus1=p7udt1050lv.1.2 bus2=p7ulv3916.1.2 switch=n enabled=y phases=2 Linecode=1P_UG_AL_1/0_Brenau_2

New Line.l(r:p7udt1052lv-p7ulv3887) Units=km Length=0.0553478 bus1=p7udt1052lv.1.2 bus2=p7ulv3887.1.2 switch=n enabled=y phases=2 Linecode=1P_OH_AL_4/0_Zuzara_2

New Line.l(r:p7udt1052lv-p7ulv3896) Units=km Length=0.022959 bus1=p7udt1052lv.1.2 bus2=p7ulv3896.1.2 switch=n enabled=y phases=2 Linecode=1P_OH_AL_2/0_Rucina_2

New Line.l(r:p7udt1052lv-p7ulv3911) Units=km Length=0.115209 bus1=p7udt1052lv.1.2 bus2=p7ulv3911.1.2 switch=n enabled=y phases=2 Linecode=1P_OH_AL_4/0_Zuzara_2

New Line.l(r:p7udt1094lv-p7ulv4136) Units=km Length=0.0115444 bus1=p7udt1094lv.1.2 bus2=p7ulv4136.1.2 switch=n enabled=y phases=2 Linecode=1P_UG_AL_1/0_Brenau_2

New Line.l(r:p7udm4371-p7ulv4079) Units=km Length=0.0385093 bus1=p7udm4371.1.2 bus2=p7ulv4079.1.2 switch=n enabled=y phases=2 Linecode=1P_UG_AL_1/0_Brenau_2

New Line.l(r:p7udm4371-p7udt1094lv) Units=km Length=0.00901275 bus1=p7udt1094lv.1.2 bus2=p7udm4371.1.2 switch=n enabled=y phases=2 Linecode=1P_UG_AL_1/0_Brenau_2

New Line.l(r:p7udm4372-p7ulv4105) Units=km Length=0.0431731 bus1=p7udm4372.1.2 bus2=p7ulv4105.1.2 switch=n enabled=y phases=2 Linecode=1P_UG_AL_1/0_Brenau_2

New Line.l(r:p7udm4372-p7udt1094lv) Units=km Length=0.009013470000000003 bus1=p7udt1094lv.1.2 bus2=p7udm4372.1.2 switch=n enabled=y phases=2 Linecode=1P_UG_AL_1/0_Brenau_2

New Line.l(r:p7udm4374-p7ulv4080) Units=km Length=0.0390515 bus1=p7udm4374.1.2 bus2=p7ulv4080.1.2 switch=n enabled=y phases=2 Linecode=1P_UG_AL_1/0_Brenau_2

New Line.l(r:p7udm4375-p7ulv4146) Units=km Length=0.0747037 bus1=p7udm4375.1.2 bus2=p7ulv4146.1.2 switch=n enabled=y phases=2 Linecode=1P_UG_AL_1/0_Brenau_2

New Line.l(r:p7udm4374-p7udm4375) Units=km Length=0.009706 bus1=p7udm4374.1.2 bus2=p7udm4375.1.2 switch=n enabled=y phases=2 Linecode=1P_UG_AL_1/0_Brenau_2

New Line.l(r:p7udm4374-p7udt1095lv) Units=km Length=0.00970963 bus1=p7udt1095lv.1.2 bus2=p7udm4374.1.2 switch=n enabled=y phases=2 Linecode=1P_UG_AL_4/0_Sweetbriar_2

New Line.l(r:p7udm4376-p7ulv4230) Units=km Length=0.058228800000000004 bus1=p7udm4376.1.2 bus2=p7ulv4230.1.2 switch=n enabled=y phases=2 Linecode=1P_UG_AL_1/0_Brenau_2

New Line.l(r:p7udm4376-p7udt1095lv) Units=km Length=0.0194156 bus1=p7udt1095lv.1.2 bus2=p7udm4376.1.2 switch=n enabled=y phases=2 Linecode=1P_UG_AL_1/0_Brenau_2

New Line.l(r:p7udt1099lv-p7ulv4084) Units=km Length=0.0159894 bus1=p7udt1099lv.1.2 bus2=p7ulv4084.1.2 switch=n enabled=y phases=2 Linecode=1P_UG_AL_1/0_Brenau_2

New Line.l(r:p7udm4405-p7ulv4128) Units=km Length=0.0189737 bus1=p7udm4405.1.2 bus2=p7ulv4128.1.2 switch=n enabled=y phases=2 Linecode=1P_UG_AL_1/0_Brenau_2

New Line.l(r:p7udm4406-p7ulv4143) Units=km Length=0.0174748 bus1=p7udm4406.1.2 bus2=p7ulv4143.1.2 switch=n enabled=y phases=2 Linecode=1P_UG_AL_1/0_Brenau_2

New Line.l(r:p7udm4405-p7udm4406) Units=km Length=0.0459086 bus1=p7udm4405.1.2 bus2=p7udm4406.1.2 switch=n enabled=y phases=2 Linecode=1P_UG_AL_1/0_Brenau_2

New Line.l(r:p7udm4405-p7udt1099lv) Units=km Length=0.00882035 bus1=p7udt1099lv.1.2 bus2=p7udm4405.1.2 switch=n enabled=y phases=2 Linecode=1P_UG_AL_1/0_Brenau_2

...