tests/data/upgrade-models/sb10_p7uhs7_1247_trans_301/p7udt173/OpenDSS/Transformers.dss
New Transformer.tr(r:p7udt5-p7udt5lv) phases=1 windings=3 %loadloss=0.798816 %Noloadloss=0.472 normhkva=27.5 wdg=1 conn=wye bus=p7udt5.1 Kv=7.2 kva=25.0 EmergHKVA=37.5 %r=0.266272 wdg=2 conn=wye bus=p7udt5lv.1.0 Kv=0.12 kva=25.0 EmergHKVA=37.5 %r=0.532544 wdg=3 conn=wye bus=p7udt5lv.0.2 Kv=0.12 kva=25.0 EmergHKVA=37.5 %r=0.532544 XHL=2.4 XLT=2.4 XHT=1.6

New Transformer.tr(r:p7udt6-p7udt6lv) phases=1 windings=3 %loadloss=0.798816 %Noloadloss=0.472 normhkva=27.5 wdg=1 conn=wye bus=p7udt6.3 Kv=7.2 kva=25.0 EmergHKVA=37.5 %r=0.266272 wdg=2 conn=wye bus=p7udt6lv.1.0 Kv=0.12 kva=25.0 EmergHKVA=37.5 %r=0.532544 wdg=3 conn=wye bus=p7udt6lv.0.2 Kv=0.12 kva=25.0 EmergHKVA=37.5 %r=0.532544 XHL=2.4 XLT=2.4 XHT=1.6

New Transformer.tr(r:p7udt7-p7udt7lv) phases=1 windings=3 %loadloss=0.798816 %Noloadloss=0.472 normhkva=27.5 wdg=1 conn=wye bus=p7udt7.3 Kv=7.2 kva=25.0 EmergHKVA=37.5 %r=0.266272 wdg=2 conn=wye bus=p7udt7lv.1.0 Kv=0.12 kva=25.0 EmergHKVA=37.5 %r=0.532544 wdg=3 conn=wye bus=p7udt7lv.0.2 Kv=0.12 kva=25.0 EmergHKVA=37.5 %r=0.532544 XHL=2.4 XLT=2.4 XHT=1.6

New Transformer.tr(r:p7udt8-p7udt8lv) phases=1 windings=3 %loadloss=0.798816 %Noloadloss=0.472 normhkva=27.5 wdg=1 conn=wye bus=p7udt8.1 Kv=7.2 kva=25.0 EmergHKVA=37.5 %r=0.266272 wdg=2 conn=wye bus=p7udt8lv.1.0 Kv=0.12 kva=25.0 EmergHKVA=37.5 %r=0.532544 wdg=3 conn=wye bus=p7udt8lv.0.2 Kv=0.12 kva=25.0 EmergHKVA=37.5 %r=0.532544 XHL=2.4 XLT=2.4 XHT=1.6

New Transformer.tr(r:p7udt9-p7udt9lv) phases=1 windings=3 %loadloss=0.798816 %Noloadloss=0.37 normhkva=55.0 wdg=1 conn=wye bus=p7udt9.3 Kv=7.2 kva=50.0 EmergHKVA=75.0 %r=0.266272 wdg=2 conn=wye bus=p7udt9lv.1.0 Kv=0.12 kva=50.0 EmergHKVA=75.0 %r=0.532544 wdg=3 conn=wye bus=p7udt9lv.0.2 Kv=0.12 kva=50.0 EmergHKVA=75.0 %r=0.532544 XHL=2.4 XLT=2.4 XHT=1.6

New Transformer.tr(r:p7udt10-p7udt10lv) phases=1 windings=3 %loadloss=0.798816 %Noloadloss=0.472 normhkva=27.5 wdg=1 conn=wye bus=p7udt10.1 Kv=7.2 kva=25.0 EmergHKVA=37.5 %r=0.266272 wdg=2 conn=wye bus=p7udt10lv.1.0 Kv=0.12 kva=25.0 EmergHKVA=37.5 %r=0.532544 wdg=3 conn=wye bus=p7udt10lv.0.2 Kv=0.12 kva=25.0 EmergHKVA=37.5 %r=0.532544 XHL=2.4 XLT=2.4 XHT=1.6

New Transformer.tr(r:p7udt11-p7udt11lv) phases=1 windings=3 %loadloss=0.798816 %Noloadloss=0.472 normhkva=27.5 wdg=1 conn=wye bus=p7udt11.1 Kv=7.2 kva=25.0 EmergHKVA=37.5 %r=0.266272 wdg=2 conn=wye bus=p7udt11lv.1.0 Kv=0.12 kva=25.0 EmergHKVA=37.5 %r=0.532544 wdg=3 conn=wye bus=p7udt11lv.0.2 Kv=0.12 kva=25.0 EmergHKVA=37.5 %r=0.532544 XHL=2.4 XLT=2.4 XHT=1.6

New Transformer.tr(r:p7udt12-p7udt12lv) phases=1 windings=3 %loadloss=0.798816 %Noloadloss=0.472 normhkva=27.5 wdg=1 conn=wye bus=p7udt12.1 Kv=7.2 kva=25.0 EmergHKVA=37.5 %r=0.266272 wdg=2 conn=wye bus=p7udt12lv.1.0 Kv=0.12 kva=25.0 EmergHKVA=37.5 %r=0.532544 wdg=3 conn=wye bus=p7udt12lv.0.2 Kv=0.12 kva=25.0 EmergHKVA=37.5 %r=0.532544 XHL=2.4 XLT=2.4 XHT=1.6

New Transformer.tr(r:p7udt13-p7udt13lv) phases=1 windings=3 %loadloss=0.798816 %Noloadloss=0.472 normhkva=27.5 wdg=1 conn=wye bus=p7udt13.3 Kv=7.2 kva=25.0 EmergHKVA=37.5 %r=0.266272 wdg=2 conn=wye bus=p7udt13lv.1.0 Kv=0.12 kva=25.0 EmergHKVA=37.5 %r=0.532544 wdg=3 conn=wye bus=p7udt13lv.0.2 Kv=0.12 kva=25.0 EmergHKVA=37.5 %r=0.532544 XHL=2.4 XLT=2.4 XHT=1.6

New Transformer.tr(r:p7udt14-p7udt14lv) phases=1 windings=3 %loadloss=0.798816 %Noloadloss=0.472 normhkva=27.5 wdg=1 conn=wye bus=p7udt14.2 Kv=7.2 kva=25.0 EmergHKVA=37.5 %r=0.266272 wdg=2 conn=wye bus=p7udt14lv.1.0 Kv=0.12 kva=25.0 EmergHKVA=37.5 %r=0.532544 wdg=3 conn=wye bus=p7udt14lv.0.2 Kv=0.12 kva=25.0 EmergHKVA=37.5 %r=0.532544 XHL=2.4 XLT=2.4 XHT=1.6

New Transformer.tr(r:p7udt15-p7udt15lv) phases=1 windings=3 %loadloss=0.798816 %Noloadloss=0.472 normhkva=27.5 wdg=1 conn=wye bus=p7udt15.1 Kv=7.2 kva=25.0 EmergHKVA=37.5 %r=0.266272 wdg=2 conn=wye bus=p7udt15lv.1.0 Kv=0.12 kva=25.0 EmergHKVA=37.5 %r=0.532544 wdg=3 conn=wye bus=p7udt15lv.0.2 Kv=0.12 kva=25.0 EmergHKVA=37.5 %r=0.532544 XHL=2.4 XLT=2.4 XHT=1.6

New Transformer.tr(r:p7udt16-p7udt16lv) phases=1 windings=3 %loadloss=0.798816 %Noloadloss=0.472 normhkva=27.5 wdg=1 conn=wye bus=p7udt16.3 Kv=7.2 kva=25.0 EmergHKVA=37.5 %r=0.266272 wdg=2 conn=wye bus=p7udt16lv.1.0 Kv=0.12 kva=25.0 EmergHKVA=37.5 %r=0.532544 wdg=3 conn=wye bus=p7udt16lv.0.2 Kv=0.12 kva=25.0 EmergHKVA=37.5 %r=0.532544 XHL=2.4 XLT=2.4 XHT=1.6

New Transformer.tr(r:p7udt17-p7udt17lv) phases=1 windings=3 %loadloss=0.798816 %Noloadloss=0.37 normhkva=55.0 wdg=1 conn=wye bus=p7udt17.3 Kv=7.2 kva=50.0 EmergHKVA=75.0 %r=0.266272 wdg=2 conn=wye bus=p7udt17lv.1.0 Kv=0.12 kva=50.0 EmergHKVA=75.0 %r=0.532544 wdg=3 conn=wye bus=p7udt17lv.0.2 Kv=0.12 kva=50.0 EmergHKVA=75.0 %r=0.532544 XHL=2.4 XLT=2.4 XHT=1.6

New Transformer.tr(r:p7udt18-p7udt18lv) phases=1 windings=3 %loadloss=0.798816 %Noloadloss=0.472 normhkva=27.5 wdg=1 conn=wye bus=p7udt18.2 Kv=7.2 kva=25.0 EmergHKVA=37.5 %r=0.266272 wdg=2 conn=wye bus=p7udt18lv.1.0 Kv=0.12 kva=25.0 EmergHKVA=37.5 %r=0.532544 wdg=3 conn=wye bus=p7udt18lv.0.2 Kv=0.12 kva=25.0 EmergHKVA=37.5 %r=0.532544 XHL=2.4 XLT=2.4 XHT=1.6

New Transformer.tr(r:p7udt19-p7udt19lv) phases=1 windings=3 %loadloss=0.798816 %Noloadloss=0.472 normhkva=27.5 wdg=1 conn=wye bus=p7udt19.2 Kv=7.2 kva=25.0 EmergHKVA=37.5 %r=0.266272 wdg=2 conn=wye bus=p7udt19lv.1.0 Kv=0.12 kva=25.0 EmergHKVA=37.5 %r=0.532544 wdg=3 conn=wye bus=p7udt19lv.0.2 Kv=0.12 kva=25.0 EmergHKVA=37.5 %r=0.532544 XHL=2.4 XLT=2.4 XHT=1.6

New Transformer.tr(r:p7udt20-p7udt20lv) phases=1 windings=3 %loadloss=0.798816 %Noloadloss=0.37 normhkva=55.0 wdg=1 conn=wye bus=p7udt20.3 Kv=7.2 kva=50.0 EmergHKVA=75.0 %r=0.266272 wdg=2 conn=wye bus=p7udt20lv.1.0 Kv=0.12 kva=50.0 EmergHKVA=75.0 %r=0.532544 wdg=3 conn=wye bus=p7udt20lv.0.2 Kv=0.12 kva=50.0 EmergHKVA=75.0 %r=0.532544 XHL=2.4 XLT=2.4 XHT=1.6

New Transformer.tr(r:p7udt21-p7udt21lv) phases=1 windings=3 %loadloss=0.798816 %Noloadloss=0.472 normhkva=27.5 wdg=1 conn=wye bus=p7udt21.3 Kv=7.2 kva=25.0 EmergHKVA=37.5 %r=0.266272 wdg=2 conn=wye bus=p7udt21lv.1.0 Kv=0.12 kva=25.0 EmergHKVA=37.5 %r=0.532544 wdg=3 conn=wye bus=p7udt21lv.0.2 Kv=0.12 kva=25.0 EmergHKVA=37.5 %r=0.532544 XHL=2.4 XLT=2.4 XHT=1.6

New Transformer.tr(r:p7udt22-p7udt22lv) phases=1 windings=3 %loadloss=0.798816 %Noloadloss=0.472 normhkva=27.5 wdg=1 conn=wye bus=p7udt22.3 Kv=7.2 kva=25.0 EmergHKVA=37.5 %r=0.266272 wdg=2 conn=wye bus=p7udt22lv.1.0 Kv=0.12 kva=25.0 EmergHKVA=37.5 %r=0.532544 wdg=3 conn=wye bus=p7udt22lv.0.2 Kv=0.12 kva=25.0 EmergHKVA=37.5 %r=0.532544 XHL=2.4 XLT=2.4 XHT=1.6

New Transformer.tr(r:p7udt23-p7udt23lv) phases=1 windings=3 %loadloss=0.798816 %Noloadloss=0.472 normhkva=27.5 wdg=1 conn=wye bus=p7udt23.1 Kv=7.2 kva=25.0 EmergHKVA=37.5 %r=0.266272 wdg=2 conn=wye bus=p7udt23lv.1.0 Kv=0.12 kva=25.0 EmergHKVA=37.5 %r=0.532544 wdg=3 conn=wye bus=p7udt23lv.0.2 Kv=0.12 kva=25.0 EmergHKVA=37.5 %r=0.532544 XHL=2.4 XLT=2.4 XHT=1.6

New Transformer.tr(r:p7udt24-p7udt24lv) phases=1 windings=3 %loadloss=0.798816 %Noloadloss=0.472 normhkva=27.5 wdg=1 conn=wye bus=p7udt24.3 Kv=7.2 kva=25.0 EmergHKVA=37.5 %r=0.266272 wdg=2 conn=wye bus=p7udt24lv.1.0 Kv=0.12 kva=25.0 EmergHKVA=37.5 %r=0.532544 wdg=3 conn=wye bus=p7udt24lv.0.2 Kv=0.12 kva=25.0 EmergHKVA=37.5 %r=0.532544 XHL=2.4 XLT=2.4 XHT=1.6

New Transformer.tr(r:p7udt25-p7udt25lv) phases=1 windings=3 %loadloss=0.798816 %Noloadloss=0.472 normhkva=27.5 wdg=1 conn=wye bus=p7udt25.1 Kv=7.2 kva=25.0 EmergHKVA=37.5 %r=0.266272 wdg=2 conn=wye bus=p7udt25lv.1.0 Kv=0.12 kva=25.0 EmergHKVA=37.5 %r=0.532544 wdg=3 conn=wye bus=p7udt25lv.0.2 Kv=0.12 kva=25.0 EmergHKVA=37.5 %r=0.532544 XHL=2.4 XLT=2.4 XHT=1.6

New Transformer.tr(r:p7udt26-p7udt26lv) phases=1 windings=3 %loadloss=0.798816 %Noloadloss=0.37 normhkva=55.0 wdg=1 conn=wye bus=p7udt26.3 Kv=7.2 kva=50.0 EmergHKVA=75.0 %r=0.266272 wdg=2 conn=wye bus=p7udt26lv.1.0 Kv=0.12 kva=50.0 EmergHKVA=75.0 %r=0.532544 wdg=3 conn=wye bus=p7udt26lv.0.2 Kv=0.12 kva=50.0 EmergHKVA=75.0 %r=0.532544 XHL=2.4 XLT=2.4 XHT=1.6

New Transformer.tr(r:p7udt27-p7udt27lv) phases=1 windings=3 %loadloss=0.798816 %Noloadloss=0.472 normhkva=27.5 wdg=1 conn=wye bus=p7udt27.3 Kv=7.2 kva=25.0 EmergHKVA=37.5 %r=0.266272 wdg=2 conn=wye bus=p7udt27lv.1.0 Kv=0.12 kva=25.0 EmergHKVA=37.5 %r=0.532544 wdg=3 conn=wye bus=p7udt27lv.0.2 Kv=0.12 kva=25.0 EmergHKVA=37.5 %r=0.532544 XHL=2.4 XLT=2.4 XHT=1.6

New Transformer.tr(r:p7udt28-p7udt28lv) phases=1 windings=3 %loadloss=0.798816 %Noloadloss=0.472 normhkva=27.5 wdg=1 conn=wye bus=p7udt28.3 Kv=7.2 kva=25.0 EmergHKVA=37.5 %r=0.266272 wdg=2 conn=wye bus=p7udt28lv.1.0 Kv=0.12 kva=25.0 EmergHKVA=37.5 %r=0.532544 wdg=3 conn=wye bus=p7udt28lv.0.2 Kv=0.12 kva=25.0 EmergHKVA=37.5 %r=0.532544 XHL=2.4 XLT=2.4 XHT=1.6

New Transformer.tr(r:p7udt29-p7udt29lv) phases=1 windings=3 %loadloss=0.798816 %Noloadloss=0.472 normhkva=27.5 wdg=1 conn=wye bus=p7udt29.3 Kv=7.2 kva=25.0 EmergHKVA=37.5 %r=0.266272 wdg=2 conn=wye bus=p7udt29lv.1.0 Kv=0.12 kva=25.0 EmergHKVA=37.5 %r=0.532544 wdg=3 conn=wye bus=p7udt29lv.0.2 Kv=0.12 kva=25.0 EmergHKVA=37.5 %r=0.532544 XHL=2.4 XLT=2.4 XHT=1.6

New Transformer.tr(r:p7udt120-p7udt120lv) phases=1 windings=3 %loadloss=0.798816 %Noloadloss=0.472 normhkva=27.5 wdg=1 conn=wye bus=p7udt120.3 Kv=7.2 kva=25.0 EmergHKVA=37.5 %r=0.266272 wdg=2 conn=wye bus=p7udt120lv.1.0 Kv=0.12 kva=25.0 EmergHKVA=37.5 %r=0.532544 wdg=3 conn=wye bus=p7udt120lv.0.2 Kv=0.12 kva=25.0 EmergHKVA=37.5 %r=0.532544 XHL=2.4 XLT=2.4 XHT=1.6

New Transformer.tr(r:p7udt121-p7udt121lv) phases=1 windings=3 %loadloss=0.798816 %Noloadloss=0.37 normhkva=55.0 wdg=1 conn=wye bus=p7udt121.1 Kv=7.2 kva=50.0 EmergHKVA=75.0 %r=0.266272 wdg=2 conn=wye bus=p7udt121lv.1.0 Kv=0.12 kva=50.0 EmergHKVA=75.0 %r=0.532544 wdg=3 conn=wye bus=p7udt121lv.0.2 Kv=0.12 kva=50.0 EmergHKVA=75.0 %r=0.532544 XHL=2.4 XLT=2.4 XHT=1.6

New Transformer.tr(r:p7udt122-p7udt122lv) phases=1 windings=3 %loadloss=0.798816 %Noloadloss=0.472 normhkva=27.5 wdg=1 conn=wye bus=p7udt122.1 Kv=7.2 kva=25.0 EmergHKVA=37.5 %r=0.266272 wdg=2 conn=wye bus=p7udt122lv.1.0 Kv=0.12 kva=25.0 EmergHKVA=37.5 %r=0.532544 wdg=3 conn=wye bus=p7udt122lv.0.2 Kv=0.12 kva=25.0 EmergHKVA=37.5 %r=0.532544 XHL=2.4 XLT=2.4 XHT=1.6

New Transformer.tr(r:p7udt123-p7udt123lv) phases=1 windings=3 %loadloss=0.798816 %Noloadloss=0.472 normhkva=27.5 wdg=1 conn=wye bus=p7udt123.1 Kv=7.2 kva=25.0 EmergHKVA=37.5 %r=0.266272 wdg=2 conn=wye bus=p7udt123lv.1.0 Kv=0.12 kva=25.0 EmergHKVA=37.5 %r=0.532544 wdg=3 conn=wye bus=p7udt123lv.0.2 Kv=0.12 kva=25.0 EmergHKVA=37.5 %r=0.532544 XHL=2.4 XLT=2.4 XHT=1.6

New Transformer.tr(r:p7udt124-p7udt124lv) phases=1 windings=3 %loadloss=0.798816 %Noloadloss=0.472 normhkva=27.5 wdg=1 conn=wye bus=p7udt124.2 Kv=7.2 kva=25.0 EmergHKVA=37.5 %r=0.266272 wdg=2 conn=wye bus=p7udt124lv.1.0 Kv=0.12 kva=25.0 EmergHKVA=37.5 %r=0.532544 wdg=3 conn=wye bus=p7udt124lv.0.2 Kv=0.12 kva=25.0 EmergHKVA=37.5 %r=0.532544 XHL=2.4 XLT=2.4 XHT=1.6

New Transformer.tr(r:p7udt125-p7udt125lv) phases=1 windings=3 %loadloss=0.798816 %Noloadloss=0.472 normhkva=27.5 wdg=1 conn=wye bus=p7udt125.1 Kv=7.2 kva=25.0 EmergHKVA=37.5 %r=0.266272 wdg=2 conn=wye bus=p7udt125lv.1.0 Kv=0.12 kva=25.0 EmergHKVA=37.5 %r=0.532544 wdg=3 conn=wye bus=p7udt125lv.0.2 Kv=0.12 kva=25.0 EmergHKVA=37.5 %r=0.532544 XHL=2.4 XLT=2.4 XHT=1.6

New Transformer.tr(r:p7udt126-p7udt126lv) phases=1 windings=3 %loadloss=0.798816 %Noloadloss=0.472 normhkva=27.5 wdg=1 conn=wye bus=p7udt126.2 Kv=7.2 kva=25.0 EmergHKVA=37.5 %r=0.266272 wdg=2 conn=wye bus=p7udt126lv.1.0 Kv=0.12 kva=25.0 EmergHKVA=37.5 %r=0.532544 wdg=3 conn=wye bus=p7udt126lv.0.2 Kv=0.12 kva=25.0 EmergHKVA=37.5 %r=0.532544 XHL=2.4 XLT=2.4 XHT=1.6

New Transformer.tr(r:p7udt127-p7udt127lv) phases=1 windings=3 %loadloss=0.798816 %Noloadloss=0.472 normhkva=27.5 wdg=1 conn=wye bus=p7udt127.1 Kv=7.2 kva=25.0 EmergHKVA=37.5 %r=0.266272 wdg=2 conn=wye bus=p7udt127lv.1.0 Kv=0.12 kva=25.0 EmergHKVA=37.5 %r=0.532544 wdg=3 conn=wye bus=p7udt127lv.0.2 Kv=0.12 kva=25.0 EmergHKVA=37.5 %r=0.532544 XHL=2.4 XLT=2.4 XHT=1.6

New Transformer.tr(r:p7udt128-p7udt128lv) phases=1 windings=3 %loadloss=0.798816 %Noloadloss=0.472 normhkva=27.5 wdg=1 conn=wye bus=p7udt128.1 Kv=7.2 kva=25.0 EmergHKVA=37.5 %r=0.266272 wdg=2 conn=wye bus=p7udt128lv.1.0 Kv=0.12 kva=25.0 EmergHKVA=37.5 %r=0.532544 wdg=3 conn=wye bus=p7udt128lv.0.2 Kv=0.12 kva=25.0 EmergHKVA=37.5 %r=0.532544 XHL=2.4 XLT=2.4 XHT=1.6

New Transformer.tr(r:p7udt129-p7udt129lv) phases=1 windings=3 %loadloss=0.798816 %Noloadloss=0.472 normhkva=27.5 wdg=1 conn=wye bus=p7udt129.3 Kv=7.2 kva=25.0 EmergHKVA=37.5 %r=0.266272 wdg=2 conn=wye bus=p7udt129lv.1.0 Kv=0.12 kva=25.0 EmergHKVA=37.5 %r=0.532544 wdg=3 conn=wye bus=p7udt129lv.0.2 Kv=0.12 kva=25.0 EmergHKVA=37.5 %r=0.532544 XHL=2.4 XLT=2.4 XHT=1.6

New Transformer.tr(r:p7udt131-p7udt131lv) phases=1 windings=3 %loadloss=0.798816 %Noloadloss=0.472 normhkva=27.5 wdg=1 conn=wye bus=p7udt131.1 Kv=7.2 kva=25.0 EmergHKVA=37.5 %r=0.266272 wdg=2 conn=wye bus=p7udt131lv.1.0 Kv=0.12 kva=25.0 EmergHKVA=37.5 %r=0.532544 wdg=3 conn=wye bus=p7udt131lv.0.2 Kv=0.12 kva=25.0 EmergHKVA=37.5 %r=0.532544 XHL=2.4 XLT=2.4 XHT=1.6

New Transformer.tr(r:p7udt132-p7udt132lv) phases=1 windings=3 %loadloss=0.798816 %Noloadloss=0.472 normhkva=27.5 wdg=1 conn=wye bus=p7udt132.1 Kv=7.2 kva=25.0 EmergHKVA=37.5 %r=0.266272 wdg=2 conn=wye bus=p7udt132lv.1.0 Kv=0.12 kva=25.0 EmergHKVA=37.5 %r=0.532544 wdg=3 conn=wye bus=p7udt132lv.0.2 Kv=0.12 kva=25.0 EmergHKVA=37.5 %r=0.532544 XHL=2.4 XLT=2.4 XHT=1.6

New Transformer.tr(r:p7udt133-p7udt133lv) phases=1 windings=3 %loadloss=0.798816 %Noloadloss=0.472 normhkva=27.5 wdg=1 conn=wye bus=p7udt133.3 Kv=7.2 kva=25.0 EmergHKVA=37.5 %r=0.266272 wdg=2 conn=wye bus=p7udt133lv.1.0 Kv=0.12 kva=25.0 EmergHKVA=37.5 %r=0.532544 wdg=3 conn=wye bus=p7udt133lv.0.2 Kv=0.12 kva=25.0 EmergHKVA=37.5 %r=0.532544 XHL=2.4 XLT=2.4 XHT=1.6

New Transformer.tr(r:p7udt135-p7udt135lv) phases=1 windings=3 %loadloss=0.798816 %Noloadloss=0.472 normhkva=27.5 wdg=1 conn=wye bus=p7udt135.2 Kv=7.2 kva=25.0 EmergHKVA=37.5 %r=0.266272 wdg=2 conn=wye bus=p7udt135lv.1.0 Kv=0.12 kva=25.0 EmergHKVA=37.5 %r=0.532544 wdg=3 conn=wye bus=p7udt135lv.0.2 Kv=0.12 kva=25.0 EmergHKVA=37.5 %r=0.532544 XHL=2.4 XLT=2.4 XHT=1.6

New Transformer.tr(r:p7udt136-p7udt136lv) phases=1 windings=3 %loadloss=0.798816 %Noloadloss=0.472 normhkva=27.5 wdg=1 conn=wye bus=p7udt136.1 Kv=7.2 kva=25.0 EmergHKVA=37.5 %r=0.266272 wdg=2 conn=wye bus=p7udt136lv.1.0 Kv=0.12 kva=25.0 EmergHKVA=37.5 %r=0.532544 wdg=3 conn=wye bus=p7udt136lv.0.2 Kv=0.12 kva=25.0 EmergHKVA=37.5 %r=0.532544 XHL=2.4 XLT=2.4 XHT=1.6

New Transformer.tr(r:p7udt137-p7udt137lv) phases=1 windings=3 %loadloss=0.798816 %Noloadloss=0.472 normhkva=27.5 wdg=1 conn=wye bus=p7udt137.1 Kv=7.2 kva=25.0 EmergHKVA=37.5 %r=0.266272 wdg=2 conn=wye bus=p7udt137lv.1.0 Kv=0.12 kva=25.0 EmergHKVA=37.5 %r=0.532544 wdg=3 conn=wye bus=p7udt137lv.0.2 Kv=0.12 kva=25.0 EmergHKVA=37.5 %r=0.532544 XHL=2.4 XLT=2.4 XHT=1.6

New Transformer.tr(r:p7udt169-p7udt169lv) phases=1 windings=3 %loadloss=0.798816 %Noloadloss=0.472 normhkva=27.5 wdg=1 conn=wye bus=p7udt169.1 Kv=7.2 kva=25.0 EmergHKVA=37.5 %r=0.266272 wdg=2 conn=wye bus=p7udt169lv.1.0 Kv=0.12 kva=25.0 EmergHKVA=37.5 %r=0.532544 wdg=3 conn=wye bus=p7udt169lv.0.2 Kv=0.12 kva=25.0 EmergHKVA=37.5 %r=0.532544 XHL=2.4 XLT=2.4 XHT=1.6

New Transformer.tr(r:p7udt173-p7udt173lv) phases=1 windings=3 %loadloss=0.798816 %Noloadloss=0.472 normhkva=27.5 wdg=1 conn=wye bus=p7udt173.3 Kv=7.2 kva=25.0 EmergHKVA=37.5 %r=0.266272 wdg=2 conn=wye bus=p7udt173lv.1.0 Kv=0.12 kva=25.0 EmergHKVA=37.5 %r=0.532544 wdg=3 conn=wye bus=p7udt173lv.0.2 Kv=0.12 kva=25.0 EmergHKVA=37.5 %r=0.532544 XHL=2.4 XLT=2.4 XHT=1.6

New Transformer.tr(r:p7udt424-p7udt424lv) phases=1 windings=3 %loadloss=0.798816 %Noloadloss=0.472 normhkva=27.5 wdg=1 conn=wye bus=p7udt424.2 Kv=7.2 kva=25.0 EmergHKVA=37.5 %r=0.266272 wdg=2 conn=wye bus=p7udt424lv.1.0 Kv=0.12 kva=25.0 EmergHKVA=37.5 %r=0.532544 wdg=3 conn=wye bus=p7udt424lv.0.2 Kv=0.12 kva=25.0 EmergHKVA=37.5 %r=0.532544 XHL=2.4 XLT=2.4 XHT=1.6

New Transformer.tr(r:p7udt425-p7udt425lv) phases=1 windings=3 %loadloss=0.798816 %Noloadloss=0.472 normhkva=27.5 wdg=1 conn=wye bus=p7udt425.2 Kv=7.2 kva=25.0 EmergHKVA=37.5 %r=0.266272 wdg=2 conn=wye bus=p7udt425lv.1.0 Kv=0.12 kva=25.0 EmergHKVA=37.5 %r=0.532544 wdg=3 conn=wye bus=p7udt425lv.0.2 Kv=0.12 kva=25.0 EmergHKVA=37.5 %r=0.532544 XHL=2.4 XLT=2.4 XHT=1.6

New Transformer.tr(r:p7udt426-p7udt426lv) phases=1 windings=3 %loadloss=0.49926 %Noloadloss=0.38 normhkva=82.5 wdg=1 conn=wye bus=p7udt426.2 Kv=7.2 kva=75.0 EmergHKVA=112.5 %r=0.16642 wdg=2 conn=wye bus=p7udt426lv.1.0 Kv=0.12 kva=75.0 EmergHKVA=112.5 %r=0.33284 wdg=3 conn=wye bus=p7udt426lv.0.2 Kv=0.12 kva=75.0 EmergHKVA=112.5 %r=0.33284 XHL=2.4 XLT=2.4 XHT=1.6

New Transformer.tr(r:p7udt427-p7udt427lv) phases=1 windings=3 %loadloss=0.798816 %Noloadloss=0.472 normhkva=27.5 wdg=1 conn=wye bus=p7udt427.2 Kv=7.2 kva=25.0 EmergHKVA=37.5 %r=0.266272 wdg=2 conn=wye bus=p7udt427lv.1.0 Kv=0.12 kva=25.0 EmergHKVA=37.5 %r=0.532544 wdg=3 conn=wye bus=p7udt427lv.0.2 Kv=0.12 kva=25.0 EmergHKVA=37.5 %r=0.532544 XHL=2.4 XLT=2.4 XHT=1.6

New Transformer.tr(r:p7udt428-p7udt428lv) phases=1 windings=3 %loadloss=0.798816 %Noloadloss=0.472 normhkva=27.5 wdg=1 conn=wye bus=p7udt428.2 Kv=7.2 kva=25.0 EmergHKVA=37.5 %r=0.266272 wdg=2 conn=wye bus=p7udt428lv.1.0 Kv=0.12 kva=25.0 EmergHKVA=37.5 %r=0.532544 wdg=3 conn=wye bus=p7udt428lv.0.2 Kv=0.12 kva=25.0 EmergHKVA=37.5 %r=0.532544 XHL=2.4 XLT=2.4 XHT=1.6

New Transformer.tr(r:p7udt429-p7udt429lv) phases=1 windings=3 %loadloss=0.798816 %Noloadloss=0.472 normhkva=27.5 wdg=1 conn=wye bus=p7udt429.2 Kv=7.2 kva=25.0 EmergHKVA=37.5 %r=0.266272 wdg=2 conn=wye bus=p7udt429lv.1.0 Kv=0.12 kva=25.0 EmergHKVA=37.5 %r=0.532544 wdg=3 conn=wye bus=p7udt429lv.0.2 Kv=0.12 kva=25.0 EmergHKVA=37.5 %r=0.532544 XHL=2.4 XLT=2.4 XHT=1.6

New Transformer.tr(r:p7udt431-p7udt431lv) phases=1 windings=3 %loadloss=0.798816 %Noloadloss=0.472 normhkva=27.5 wdg=1 conn=wye bus=p7udt431.2 Kv=7.2 kva=25.0 EmergHKVA=37.5 %r=0.266272 wdg=2 conn=wye bus=p7udt431lv.1.0 Kv=0.12 kva=25.0 EmergHKVA=37.5 %r=0.532544 wdg=3 conn=wye bus=p7udt431lv.0.2 Kv=0.12 kva=25.0 EmergHKVA=37.5 %r=0.532544 XHL=2.4 XLT=2.4 XHT=1.6

New Transformer.tr(r:p7udt433-p7udt433lv) phases=1 windings=3 %loadloss=0.798816 %Noloadloss=0.472 normhkva=27.5 wdg=1 conn=wye bus=p7udt433.2 Kv=7.2 kva=25.0 EmergHKVA=37.5 %r=0.266272 wdg=2 conn=wye bus=p7udt433lv.1.0 Kv=0.12 kva=25.0 EmergHKVA=37.5 %r=0.532544 wdg=3 conn=wye bus=p7udt433lv.0.2 Kv=0.12 kva=25.0 EmergHKVA=37.5 %r=0.532544 XHL=2.4 XLT=2.4 XHT=1.6

New Transformer.tr(r:p7udt441-p7udt441lv) phases=1 windings=3 %loadloss=0.798816 %Noloadloss=0.37 normhkva=55.0 wdg=1 conn=wye bus=p7udt441.2 Kv=7.2 kva=50.0 EmergHKVA=75.0 %r=0.266272 wdg=2 conn=wye bus=p7udt441lv.1.0 Kv=0.12 kva=50.0 EmergHKVA=75.0 %r=0.532544 wdg=3 conn=wye bus=p7udt441lv.0.2 Kv=0.12 kva=50.0 EmergHKVA=75.0 %r=0.532544 XHL=2.4 XLT=2.4 XHT=1.6

New Transformer.tr(r:p7udt442-p7udt442lv) phases=1 windings=3 %loadloss=0.798816 %Noloadloss=0.472 normhkva=27.5 wdg=1 conn=wye bus=p7udt442.1 Kv=7.2 kva=25.0 EmergHKVA=37.5 %r=0.266272 wdg=2 conn=wye bus=p7udt442lv.1.0 Kv=0.12 kva=25.0 EmergHKVA=37.5 %r=0.532544 wdg=3 conn=wye bus=p7udt442lv.0.2 Kv=0.12 kva=25.0 EmergHKVA=37.5 %r=0.532544 XHL=2.4 XLT=2.4 XHT=1.6

New Transformer.tr(r:p7udt443-p7udt443lv) phases=1 windings=3 %loadloss=0.798816 %Noloadloss=0.472 normhkva=27.5 wdg=1 conn=wye bus=p7udt443.3 Kv=7.2 kva=25.0 EmergHKVA=37.5 %r=0.266272 wdg=2 conn=wye bus=p7udt443lv.1.0 Kv=0.12 kva=25.0 EmergHKVA=37.5 %r=0.532544 wdg=3 conn=wye bus=p7udt443lv.0.2 Kv=0.12 kva=25.0 EmergHKVA=37.5 %r=0.532544 XHL=2.4 XLT=2.4 XHT=1.6

New Transformer.tr(r:p7udt444-p7udt444lv) phases=1 windings=3 %loadloss=0.798816 %Noloadloss=0.472 normhkva=27.5 wdg=1 conn=wye bus=p7udt444.2 Kv=7.2 kva=25.0 EmergHKVA=37.5 %r=0.266272 wdg=2 conn=wye bus=p7udt444lv.1.0 Kv=0.12 kva=25.0 EmergHKVA=37.5 %r=0.532544 wdg=3 conn=wye bus=p7udt444lv.0.2 Kv=0.12 kva=25.0 EmergHKVA=37.5 %r=0.532544 XHL=2.4 XLT=2.4 XHT=1.6

...