tests/data/upgrade-models/sb10_p7uhs7_1247_trans_301/p7udt173/OpenDSS/Loads.dss
New Load.load_p7ulv13_1 conn=wye bus1=p7ulv13.1 kV=0.12 Vminpu=0.8 Vmaxpu=1.2 model=1 kW=4.271393986956659 kvar=1.2213936647746906 Phases=1
New Load.load_p7ulv13_2 conn=wye bus1=p7ulv13.2 kV=0.12 Vminpu=0.8 Vmaxpu=1.2 model=1 kW=4.271393986956659 kvar=1.2213936647746906 Phases=1
New Load.load_p7ulv14_1 conn=wye bus1=p7ulv14.1 kV=0.12 Vminpu=0.8 Vmaxpu=1.2 model=1 kW=4.427815907886422 kvar=0.7888382828538644 Phases=1
New Load.load_p7ulv14_2 conn=wye bus1=p7ulv14.2 kV=0.12 Vminpu=0.8 Vmaxpu=1.2 model=1 kW=4.427815907886422 kvar=0.7888382828538644 Phases=1
New Load.load_p7ulv15_1 conn=wye bus1=p7ulv15.1 kV=0.12 Vminpu=0.8 Vmaxpu=1.2 model=1 kW=0.5376772892748619 kvar=0.2974158251491602 Phases=1
New Load.load_p7ulv15_2 conn=wye bus1=p7ulv15.2 kV=0.12 Vminpu=0.8 Vmaxpu=1.2 model=1 kW=0.5376772892748619 kvar=0.2974158251491602 Phases=1
New Load.load_p7ulv16_1 conn=wye bus1=p7ulv16.1 kV=0.12 Vminpu=0.8 Vmaxpu=1.2 model=1 kW=2.8654725542028965 kvar=0.4860984121918115 Phases=1
New Load.load_p7ulv16_2 conn=wye bus1=p7ulv16.2 kV=0.12 Vminpu=0.8 Vmaxpu=1.2 model=1 kW=2.8654725542028965 kvar=0.4860984121918115 Phases=1
New Load.load_p7ulv17_1 conn=wye bus1=p7ulv17.1 kV=0.12 Vminpu=0.8 Vmaxpu=1.2 model=1 kW=1.5478654763148745 kvar=0.5646840796232575 Phases=1
New Load.load_p7ulv17_2 conn=wye bus1=p7ulv17.2 kV=0.12 Vminpu=0.8 Vmaxpu=1.2 model=1 kW=1.5478654763148745 kvar=0.5646840796232575 Phases=1
New Load.load_p7ulv18_1 conn=wye bus1=p7ulv18.1 kV=0.12 Vminpu=0.8 Vmaxpu=1.2 model=1 kW=1.4377468406339768 kvar=0.40703878294918266 Phases=1
New Load.load_p7ulv18_2 conn=wye bus1=p7ulv18.2 kV=0.12 Vminpu=0.8 Vmaxpu=1.2 model=1 kW=1.4377468406339768 kvar=0.40703878294918266 Phases=1
New Load.load_p7ulv19_1 conn=wye bus1=p7ulv19.1 kV=0.12 Vminpu=0.8 Vmaxpu=1.2 model=1 kW=0.6211116916449642 kvar=0.3778136238343289 Phases=1
New Load.load_p7ulv19_2 conn=wye bus1=p7ulv19.2 kV=0.12 Vminpu=0.8 Vmaxpu=1.2 model=1 kW=0.6211116916449642 kvar=0.3778136238343289 Phases=1
New Load.load_p7ulv20_1 conn=wye bus1=p7ulv20.1 kV=0.12 Vminpu=0.8 Vmaxpu=1.2 model=1 kW=1.0817990316674126 kvar=0.6606347783342864 Phases=1
New Load.load_p7ulv20_2 conn=wye bus1=p7ulv20.2 kV=0.12 Vminpu=0.8 Vmaxpu=1.2 model=1 kW=1.0817990316674126 kvar=0.6606347783342864 Phases=1
New Load.load_p7ulv21_1 conn=wye bus1=p7ulv21.1 kV=0.12 Vminpu=0.8 Vmaxpu=1.2 model=1 kW=2.944217637449141 kvar=0.5265857616524692 Phases=1
New Load.load_p7ulv21_2 conn=wye bus1=p7ulv21.2 kV=0.12 Vminpu=0.8 Vmaxpu=1.2 model=1 kW=2.944217637449141 kvar=0.5265857616524692 Phases=1
New Load.load_p7ulv22_1 conn=wye bus1=p7ulv22.1 kV=0.12 Vminpu=0.8 Vmaxpu=1.2 model=1 kW=1.6818250158580716 kvar=0.549320812443813 Phases=1
New Load.load_p7ulv22_2 conn=wye bus1=p7ulv22.2 kV=0.12 Vminpu=0.8 Vmaxpu=1.2 model=1 kW=1.6818250158580716 kvar=0.549320812443813 Phases=1
New Load.load_p7ulv23_1 conn=wye bus1=p7ulv23.1 kV=0.12 Vminpu=0.8 Vmaxpu=1.2 model=1 kW=3.8900549041243417 kvar=0.7551739499285025 Phases=1
New Load.load_p7ulv23_2 conn=wye bus1=p7ulv23.2 kV=0.12 Vminpu=0.8 Vmaxpu=1.2 model=1 kW=3.8900549041243417 kvar=0.7551739499285025 Phases=1
New Load.load_p7ulv24_1 conn=wye bus1=p7ulv24.1 kV=0.12 Vminpu=0.8 Vmaxpu=1.2 model=1 kW=2.3464174292990054 kvar=0.8802812503815668 Phases=1
New Load.load_p7ulv24_2 conn=wye bus1=p7ulv24.2 kV=0.12 Vminpu=0.8 Vmaxpu=1.2 model=1 kW=2.3464174292990054 kvar=0.8802812503815668 Phases=1
New Load.load_p7ulv25_1 conn=wye bus1=p7ulv25.1 kV=0.12 Vminpu=0.8 Vmaxpu=1.2 model=1 kW=4.542113174533756 kvar=1.151257055509776 Phases=1
New Load.load_p7ulv25_2 conn=wye bus1=p7ulv25.2 kV=0.12 Vminpu=0.8 Vmaxpu=1.2 model=1 kW=4.542113174533756 kvar=1.151257055509776 Phases=1
New Load.load_p7ulv26_1 conn=wye bus1=p7ulv26.1 kV=0.12 Vminpu=0.8 Vmaxpu=1.2 model=1 kW=6.0705932929543005 kvar=1.740368147995236 Phases=1
New Load.load_p7ulv26_2 conn=wye bus1=p7ulv26.2 kV=0.12 Vminpu=0.8 Vmaxpu=1.2 model=1 kW=6.0705932929543005 kvar=1.740368147995236 Phases=1
New Load.load_p7ulv27_1 conn=wye bus1=p7ulv27.1 kV=0.12 Vminpu=0.8 Vmaxpu=1.2 model=1 kW=2.08230391546442 kvar=0.6386762700158243 Phases=1
New Load.load_p7ulv27_2 conn=wye bus1=p7ulv27.2 kV=0.12 Vminpu=0.8 Vmaxpu=1.2 model=1 kW=2.08230391546442 kvar=0.6386762700158243 Phases=1
New Load.load_p7ulv28_1 conn=wye bus1=p7ulv28.1 kV=0.12 Vminpu=0.8 Vmaxpu=1.2 model=1 kW=3.459276697523187 kvar=0.8425022918187992 Phases=1
New Load.load_p7ulv28_2 conn=wye bus1=p7ulv28.2 kV=0.12 Vminpu=0.8 Vmaxpu=1.2 model=1 kW=3.459276697523187 kvar=0.8425022918187992 Phases=1
New Load.load_p7ulv29_1 conn=wye bus1=p7ulv29.1 kV=0.12 Vminpu=0.8 Vmaxpu=1.2 model=1 kW=0.5229589832640044 kvar=0.3359880712066463 Phases=1
New Load.load_p7ulv29_2 conn=wye bus1=p7ulv29.2 kV=0.12 Vminpu=0.8 Vmaxpu=1.2 model=1 kW=0.5229589832640044 kvar=0.3359880712066463 Phases=1
New Load.load_p7ulv30_1 conn=wye bus1=p7ulv30.1 kV=0.12 Vminpu=0.8 Vmaxpu=1.2 model=1 kW=4.025235929487997 kvar=1.9672019739719726 Phases=1
...